
---------- Begin Simulation Statistics ----------
simSeconds                                   0.001576                       # Number of seconds simulated (Second)
simTicks                                   1576477500                       # Number of ticks simulated (Tick)
finalTick                                  1576477500                       # Number of ticks from beginning of simulation (restored from checkpoints and never reset) (Tick)
simFreq                                  1000000000000                       # The number of ticks per simulated second ((Tick/Second))
hostSeconds                                      2.24                       # Real time elapsed on the host (Second)
hostTickRate                                702500099                       # The number of ticks simulated per host second (ticks/s) ((Tick/Second))
hostMemory                                    8593728                       # Number of bytes of host memory used (Byte)
simInsts                                      1692866                       # Number of instructions simulated (Count)
simOps                                        2881846                       # Number of ops (including micro ops) simulated (Count)
hostInstRate                                   754326                       # Simulator instruction rate (inst/s) ((Count/Second))
hostOpRate                                    1284120                       # Simulator op (including micro ops) rate (op/s) ((Count/Second))
system.clk_domain.clock                          1000                       # Clock period in ticks (Tick)
system.cpu0.numCycles                         3152955                       # Number of cpu cycles simulated (Cycle)
system.cpu0.cpi                              3.724749                       # CPI: cycles per instruction (core level) ((Cycle/Count))
system.cpu0.ipc                              0.268474                       # IPC: instructions per cycle (core level) ((Count/Cycle))
system.cpu0.numWorkItemsStarted                     0                       # Number of work items this cpu started (Count)
system.cpu0.numWorkItemsCompleted                   0                       # Number of work items this cpu completed (Count)
system.cpu0.commitStats0.numInsts              846488                       # Number of instructions committed (thread level) (Count)
system.cpu0.commitStats0.numOps               1441019                       # Number of ops (including micro ops) committed (thread level) (Count)
system.cpu0.commitStats0.numInstsNotNOP             0                       # Number of instructions committed excluding NOPs or prefetches (Count)
system.cpu0.commitStats0.numOpsNotNOP               0                       # Number of Ops (including micro ops) Simulated (Count)
system.cpu0.commitStats0.cpi                 3.724749                       # CPI: cycles per instruction (thread level) ((Cycle/Count))
system.cpu0.commitStats0.ipc                 0.268474                       # IPC: instructions per cycle (thread level) ((Count/Cycle))
system.cpu0.commitStats0.numMemRefs                 0                       # Number of memory references committed (Count)
system.cpu0.commitStats0.numFpInsts              6492                       # Number of float instructions (Count)
system.cpu0.commitStats0.numIntInsts          1434037                       # Number of integer instructions (Count)
system.cpu0.commitStats0.numLoadInsts          224688                       # Number of load instructions (Count)
system.cpu0.commitStats0.numStoreInsts          53227                       # Number of store instructions (Count)
system.cpu0.commitStats0.numVecInsts                0                       # Number of vector instructions (Count)
system.cpu0.commitStats0.committedInstType::No_OpClass         2369      0.16%      0.16% # Class of committed instruction. (Count)
system.cpu0.commitStats0.committedInstType::IntAlu      1154641     80.13%     80.29% # Class of committed instruction. (Count)
system.cpu0.commitStats0.committedInstType::IntMult          707      0.05%     80.34% # Class of committed instruction. (Count)
system.cpu0.commitStats0.committedInstType::IntDiv         1451      0.10%     80.44% # Class of committed instruction. (Count)
system.cpu0.commitStats0.committedInstType::FloatAdd          408      0.03%     80.47% # Class of committed instruction. (Count)
system.cpu0.commitStats0.committedInstType::FloatCmp            0      0.00%     80.47% # Class of committed instruction. (Count)
system.cpu0.commitStats0.committedInstType::FloatCvt            0      0.00%     80.47% # Class of committed instruction. (Count)
system.cpu0.commitStats0.committedInstType::FloatMult            0      0.00%     80.47% # Class of committed instruction. (Count)
system.cpu0.commitStats0.committedInstType::FloatMultAcc            0      0.00%     80.47% # Class of committed instruction. (Count)
system.cpu0.commitStats0.committedInstType::FloatDiv            0      0.00%     80.47% # Class of committed instruction. (Count)
system.cpu0.commitStats0.committedInstType::FloatMisc            0      0.00%     80.47% # Class of committed instruction. (Count)
system.cpu0.commitStats0.committedInstType::FloatSqrt            0      0.00%     80.47% # Class of committed instruction. (Count)
system.cpu0.commitStats0.committedInstType::SimdAdd          416      0.03%     80.50% # Class of committed instruction. (Count)
system.cpu0.commitStats0.committedInstType::SimdAddAcc            0      0.00%     80.50% # Class of committed instruction. (Count)
system.cpu0.commitStats0.committedInstType::SimdAlu          917      0.06%     80.56% # Class of committed instruction. (Count)
system.cpu0.commitStats0.committedInstType::SimdCmp            2      0.00%     80.56% # Class of committed instruction. (Count)
system.cpu0.commitStats0.committedInstType::SimdCvt          960      0.07%     80.63% # Class of committed instruction. (Count)
system.cpu0.commitStats0.committedInstType::SimdMisc         1007      0.07%     80.70% # Class of committed instruction. (Count)
system.cpu0.commitStats0.committedInstType::SimdMult            0      0.00%     80.70% # Class of committed instruction. (Count)
system.cpu0.commitStats0.committedInstType::SimdMultAcc            0      0.00%     80.70% # Class of committed instruction. (Count)
system.cpu0.commitStats0.committedInstType::SimdMatMultAcc            0      0.00%     80.70% # Class of committed instruction. (Count)
system.cpu0.commitStats0.committedInstType::SimdShift          226      0.02%     80.71% # Class of committed instruction. (Count)
system.cpu0.commitStats0.committedInstType::SimdShiftAcc            0      0.00%     80.71% # Class of committed instruction. (Count)
system.cpu0.commitStats0.committedInstType::SimdDiv            0      0.00%     80.71% # Class of committed instruction. (Count)
system.cpu0.commitStats0.committedInstType::SimdSqrt            0      0.00%     80.71% # Class of committed instruction. (Count)
system.cpu0.commitStats0.committedInstType::SimdFloatAdd            0      0.00%     80.71% # Class of committed instruction. (Count)
system.cpu0.commitStats0.committedInstType::SimdFloatAlu            0      0.00%     80.71% # Class of committed instruction. (Count)
system.cpu0.commitStats0.committedInstType::SimdFloatCmp            0      0.00%     80.71% # Class of committed instruction. (Count)
system.cpu0.commitStats0.committedInstType::SimdFloatCvt            0      0.00%     80.71% # Class of committed instruction. (Count)
system.cpu0.commitStats0.committedInstType::SimdFloatDiv            0      0.00%     80.71% # Class of committed instruction. (Count)
system.cpu0.commitStats0.committedInstType::SimdFloatMisc            0      0.00%     80.71% # Class of committed instruction. (Count)
system.cpu0.commitStats0.committedInstType::SimdFloatMult            0      0.00%     80.71% # Class of committed instruction. (Count)
system.cpu0.commitStats0.committedInstType::SimdFloatMultAcc            0      0.00%     80.71% # Class of committed instruction. (Count)
system.cpu0.commitStats0.committedInstType::SimdFloatMatMultAcc            0      0.00%     80.71% # Class of committed instruction. (Count)
system.cpu0.commitStats0.committedInstType::SimdFloatSqrt            0      0.00%     80.71% # Class of committed instruction. (Count)
system.cpu0.commitStats0.committedInstType::SimdReduceAdd            0      0.00%     80.71% # Class of committed instruction. (Count)
system.cpu0.commitStats0.committedInstType::SimdReduceAlu            0      0.00%     80.71% # Class of committed instruction. (Count)
system.cpu0.commitStats0.committedInstType::SimdReduceCmp            0      0.00%     80.71% # Class of committed instruction. (Count)
system.cpu0.commitStats0.committedInstType::SimdFloatReduceAdd            0      0.00%     80.71% # Class of committed instruction. (Count)
system.cpu0.commitStats0.committedInstType::SimdFloatReduceCmp            0      0.00%     80.71% # Class of committed instruction. (Count)
system.cpu0.commitStats0.committedInstType::SimdAes            0      0.00%     80.71% # Class of committed instruction. (Count)
system.cpu0.commitStats0.committedInstType::SimdAesMix            0      0.00%     80.71% # Class of committed instruction. (Count)
system.cpu0.commitStats0.committedInstType::SimdSha1Hash            0      0.00%     80.71% # Class of committed instruction. (Count)
system.cpu0.commitStats0.committedInstType::SimdSha1Hash2            0      0.00%     80.71% # Class of committed instruction. (Count)
system.cpu0.commitStats0.committedInstType::SimdSha256Hash            0      0.00%     80.71% # Class of committed instruction. (Count)
system.cpu0.commitStats0.committedInstType::SimdSha256Hash2            0      0.00%     80.71% # Class of committed instruction. (Count)
system.cpu0.commitStats0.committedInstType::SimdShaSigma2            0      0.00%     80.71% # Class of committed instruction. (Count)
system.cpu0.commitStats0.committedInstType::SimdShaSigma3            0      0.00%     80.71% # Class of committed instruction. (Count)
system.cpu0.commitStats0.committedInstType::SimdPredAlu            0      0.00%     80.71% # Class of committed instruction. (Count)
system.cpu0.commitStats0.committedInstType::Matrix            0      0.00%     80.71% # Class of committed instruction. (Count)
system.cpu0.commitStats0.committedInstType::MatrixMov            0      0.00%     80.71% # Class of committed instruction. (Count)
system.cpu0.commitStats0.committedInstType::MatrixOP            0      0.00%     80.71% # Class of committed instruction. (Count)
system.cpu0.commitStats0.committedInstType::MemRead       223632     15.52%     96.23% # Class of committed instruction. (Count)
system.cpu0.commitStats0.committedInstType::MemWrite        52095      3.62%     99.85% # Class of committed instruction. (Count)
system.cpu0.commitStats0.committedInstType::FloatMemRead         1056      0.07%     99.92% # Class of committed instruction. (Count)
system.cpu0.commitStats0.committedInstType::FloatMemWrite         1132      0.08%    100.00% # Class of committed instruction. (Count)
system.cpu0.commitStats0.committedInstType::IprAccess            0      0.00%    100.00% # Class of committed instruction. (Count)
system.cpu0.commitStats0.committedInstType::InstPrefetch            0      0.00%    100.00% # Class of committed instruction. (Count)
system.cpu0.commitStats0.committedInstType::VectorUnitStrideLoad            0      0.00%    100.00% # Class of committed instruction. (Count)
system.cpu0.commitStats0.committedInstType::VectorUnitStrideStore            0      0.00%    100.00% # Class of committed instruction. (Count)
system.cpu0.commitStats0.committedInstType::VectorUnitStrideMaskLoad            0      0.00%    100.00% # Class of committed instruction. (Count)
system.cpu0.commitStats0.committedInstType::VectorUnitStrideMaskStore            0      0.00%    100.00% # Class of committed instruction. (Count)
system.cpu0.commitStats0.committedInstType::VectorStridedLoad            0      0.00%    100.00% # Class of committed instruction. (Count)
system.cpu0.commitStats0.committedInstType::VectorStridedStore            0      0.00%    100.00% # Class of committed instruction. (Count)
system.cpu0.commitStats0.committedInstType::VectorIndexedLoad            0      0.00%    100.00% # Class of committed instruction. (Count)
system.cpu0.commitStats0.committedInstType::VectorIndexedStore            0      0.00%    100.00% # Class of committed instruction. (Count)
system.cpu0.commitStats0.committedInstType::VectorUnitStrideFaultOnlyFirstLoad            0      0.00%    100.00% # Class of committed instruction. (Count)
system.cpu0.commitStats0.committedInstType::VectorWholeRegisterLoad            0      0.00%    100.00% # Class of committed instruction. (Count)
system.cpu0.commitStats0.committedInstType::VectorWholeRegisterStore            0      0.00%    100.00% # Class of committed instruction. (Count)
system.cpu0.commitStats0.committedInstType::VectorIntegerArith            0      0.00%    100.00% # Class of committed instruction. (Count)
system.cpu0.commitStats0.committedInstType::VectorFloatArith            0      0.00%    100.00% # Class of committed instruction. (Count)
system.cpu0.commitStats0.committedInstType::VectorFloatConvert            0      0.00%    100.00% # Class of committed instruction. (Count)
system.cpu0.commitStats0.committedInstType::VectorIntegerReduce            0      0.00%    100.00% # Class of committed instruction. (Count)
system.cpu0.commitStats0.committedInstType::VectorFloatReduce            0      0.00%    100.00% # Class of committed instruction. (Count)
system.cpu0.commitStats0.committedInstType::VectorMisc            0      0.00%    100.00% # Class of committed instruction. (Count)
system.cpu0.commitStats0.committedInstType::VectorIntegerExtension            0      0.00%    100.00% # Class of committed instruction. (Count)
system.cpu0.commitStats0.committedInstType::VectorConfig            0      0.00%    100.00% # Class of committed instruction. (Count)
system.cpu0.commitStats0.committedInstType::total      1441019                       # Class of committed instruction. (Count)
system.cpu0.commitStats0.committedControl::IsControl       220845                       # Class of control type instructions committed (Count)
system.cpu0.commitStats0.committedControl::IsDirectControl       219568                       # Class of control type instructions committed (Count)
system.cpu0.commitStats0.committedControl::IsIndirectControl         1234                       # Class of control type instructions committed (Count)
system.cpu0.commitStats0.committedControl::IsCondControl       218053                       # Class of control type instructions committed (Count)
system.cpu0.commitStats0.committedControl::IsUncondControl         2749                       # Class of control type instructions committed (Count)
system.cpu0.commitStats0.committedControl::IsCall          895                       # Class of control type instructions committed (Count)
system.cpu0.commitStats0.committedControl::IsReturn          890                       # Class of control type instructions committed (Count)
system.cpu0.dcache.demandHits::cpu0.data       276217                       # number of demand (read+write) hits (Count)
system.cpu0.dcache.demandHits::total           276217                       # number of demand (read+write) hits (Count)
system.cpu0.dcache.overallHits::cpu0.data       276217                       # number of overall hits (Count)
system.cpu0.dcache.overallHits::total          276217                       # number of overall hits (Count)
system.cpu0.dcache.demandMisses::cpu0.data         1615                       # number of demand (read+write) misses (Count)
system.cpu0.dcache.demandMisses::total           1615                       # number of demand (read+write) misses (Count)
system.cpu0.dcache.overallMisses::cpu0.data         1615                       # number of overall misses (Count)
system.cpu0.dcache.overallMisses::total          1615                       # number of overall misses (Count)
system.cpu0.dcache.demandMissLatency::cpu0.data    115899500                       # number of demand (read+write) miss ticks (Tick)
system.cpu0.dcache.demandMissLatency::total    115899500                       # number of demand (read+write) miss ticks (Tick)
system.cpu0.dcache.overallMissLatency::cpu0.data    115899500                       # number of overall miss ticks (Tick)
system.cpu0.dcache.overallMissLatency::total    115899500                       # number of overall miss ticks (Tick)
system.cpu0.dcache.demandAccesses::cpu0.data       277832                       # number of demand (read+write) accesses (Count)
system.cpu0.dcache.demandAccesses::total       277832                       # number of demand (read+write) accesses (Count)
system.cpu0.dcache.overallAccesses::cpu0.data       277832                       # number of overall (read+write) accesses (Count)
system.cpu0.dcache.overallAccesses::total       277832                       # number of overall (read+write) accesses (Count)
system.cpu0.dcache.demandMissRate::cpu0.data     0.005813                       # miss rate for demand accesses (Ratio)
system.cpu0.dcache.demandMissRate::total     0.005813                       # miss rate for demand accesses (Ratio)
system.cpu0.dcache.overallMissRate::cpu0.data     0.005813                       # miss rate for overall accesses (Ratio)
system.cpu0.dcache.overallMissRate::total     0.005813                       # miss rate for overall accesses (Ratio)
system.cpu0.dcache.demandAvgMissLatency::cpu0.data 71764.396285                       # average overall miss latency in ticks ((Tick/Count))
system.cpu0.dcache.demandAvgMissLatency::total 71764.396285                       # average overall miss latency in ticks ((Tick/Count))
system.cpu0.dcache.overallAvgMissLatency::cpu0.data 71764.396285                       # average overall miss latency ((Tick/Count))
system.cpu0.dcache.overallAvgMissLatency::total 71764.396285                       # average overall miss latency ((Tick/Count))
system.cpu0.dcache.blockedCycles::no_mshrs            0                       # number of cycles access was blocked (Cycle)
system.cpu0.dcache.blockedCycles::no_targets            0                       # number of cycles access was blocked (Cycle)
system.cpu0.dcache.blockedCauses::no_mshrs            0                       # number of times access was blocked (Count)
system.cpu0.dcache.blockedCauses::no_targets            0                       # number of times access was blocked (Count)
system.cpu0.dcache.avgBlocked::no_mshrs           nan                       # average number of cycles each access was blocked ((Cycle/Count))
system.cpu0.dcache.avgBlocked::no_targets          nan                       # average number of cycles each access was blocked ((Cycle/Count))
system.cpu0.dcache.writebacks::writebacks          517                       # number of writebacks (Count)
system.cpu0.dcache.writebacks::total              517                       # number of writebacks (Count)
system.cpu0.dcache.demandMshrMisses::cpu0.data         1615                       # number of demand (read+write) MSHR misses (Count)
system.cpu0.dcache.demandMshrMisses::total         1615                       # number of demand (read+write) MSHR misses (Count)
system.cpu0.dcache.overallMshrMisses::cpu0.data         1615                       # number of overall MSHR misses (Count)
system.cpu0.dcache.overallMshrMisses::total         1615                       # number of overall MSHR misses (Count)
system.cpu0.dcache.demandMshrMissLatency::cpu0.data    114284500                       # number of demand (read+write) MSHR miss ticks (Tick)
system.cpu0.dcache.demandMshrMissLatency::total    114284500                       # number of demand (read+write) MSHR miss ticks (Tick)
system.cpu0.dcache.overallMshrMissLatency::cpu0.data    114284500                       # number of overall MSHR miss ticks (Tick)
system.cpu0.dcache.overallMshrMissLatency::total    114284500                       # number of overall MSHR miss ticks (Tick)
system.cpu0.dcache.demandMshrMissRate::cpu0.data     0.005813                       # mshr miss ratio for demand accesses (Ratio)
system.cpu0.dcache.demandMshrMissRate::total     0.005813                       # mshr miss ratio for demand accesses (Ratio)
system.cpu0.dcache.overallMshrMissRate::cpu0.data     0.005813                       # mshr miss ratio for overall accesses (Ratio)
system.cpu0.dcache.overallMshrMissRate::total     0.005813                       # mshr miss ratio for overall accesses (Ratio)
system.cpu0.dcache.demandAvgMshrMissLatency::cpu0.data 70764.396285                       # average overall mshr miss latency ((Tick/Count))
system.cpu0.dcache.demandAvgMshrMissLatency::total 70764.396285                       # average overall mshr miss latency ((Tick/Count))
system.cpu0.dcache.overallAvgMshrMissLatency::cpu0.data 70764.396285                       # average overall mshr miss latency ((Tick/Count))
system.cpu0.dcache.overallAvgMshrMissLatency::total 70764.396285                       # average overall mshr miss latency ((Tick/Count))
system.cpu0.dcache.replacements                  1110                       # number of replacements (Count)
system.cpu0.dcache.LockedRMWReadReq.hits::cpu0.data           10                       # number of LockedRMWReadReq hits (Count)
system.cpu0.dcache.LockedRMWReadReq.hits::total           10                       # number of LockedRMWReadReq hits (Count)
system.cpu0.dcache.LockedRMWReadReq.misses::cpu0.data            2                       # number of LockedRMWReadReq misses (Count)
system.cpu0.dcache.LockedRMWReadReq.misses::total            2                       # number of LockedRMWReadReq misses (Count)
system.cpu0.dcache.LockedRMWReadReq.missLatency::cpu0.data       113000                       # number of LockedRMWReadReq miss ticks (Tick)
system.cpu0.dcache.LockedRMWReadReq.missLatency::total       113000                       # number of LockedRMWReadReq miss ticks (Tick)
system.cpu0.dcache.LockedRMWReadReq.accesses::cpu0.data           12                       # number of LockedRMWReadReq accesses(hits+misses) (Count)
system.cpu0.dcache.LockedRMWReadReq.accesses::total           12                       # number of LockedRMWReadReq accesses(hits+misses) (Count)
system.cpu0.dcache.LockedRMWReadReq.missRate::cpu0.data     0.166667                       # miss rate for LockedRMWReadReq accesses (Ratio)
system.cpu0.dcache.LockedRMWReadReq.missRate::total     0.166667                       # miss rate for LockedRMWReadReq accesses (Ratio)
system.cpu0.dcache.LockedRMWReadReq.avgMissLatency::cpu0.data        56500                       # average LockedRMWReadReq miss latency ((Tick/Count))
system.cpu0.dcache.LockedRMWReadReq.avgMissLatency::total        56500                       # average LockedRMWReadReq miss latency ((Tick/Count))
system.cpu0.dcache.LockedRMWReadReq.mshrMisses::cpu0.data            2                       # number of LockedRMWReadReq MSHR misses (Count)
system.cpu0.dcache.LockedRMWReadReq.mshrMisses::total            2                       # number of LockedRMWReadReq MSHR misses (Count)
system.cpu0.dcache.LockedRMWReadReq.mshrMissLatency::cpu0.data       234000                       # number of LockedRMWReadReq MSHR miss ticks (Tick)
system.cpu0.dcache.LockedRMWReadReq.mshrMissLatency::total       234000                       # number of LockedRMWReadReq MSHR miss ticks (Tick)
system.cpu0.dcache.LockedRMWReadReq.mshrMissRate::cpu0.data     0.166667                       # mshr miss rate for LockedRMWReadReq accesses (Ratio)
system.cpu0.dcache.LockedRMWReadReq.mshrMissRate::total     0.166667                       # mshr miss rate for LockedRMWReadReq accesses (Ratio)
system.cpu0.dcache.LockedRMWReadReq.avgMshrMissLatency::cpu0.data       117000                       # average LockedRMWReadReq mshr miss latency ((Tick/Count))
system.cpu0.dcache.LockedRMWReadReq.avgMshrMissLatency::total       117000                       # average LockedRMWReadReq mshr miss latency ((Tick/Count))
system.cpu0.dcache.LockedRMWWriteReq.hits::cpu0.data           12                       # number of LockedRMWWriteReq hits (Count)
system.cpu0.dcache.LockedRMWWriteReq.hits::total           12                       # number of LockedRMWWriteReq hits (Count)
system.cpu0.dcache.LockedRMWWriteReq.accesses::cpu0.data           12                       # number of LockedRMWWriteReq accesses(hits+misses) (Count)
system.cpu0.dcache.LockedRMWWriteReq.accesses::total           12                       # number of LockedRMWWriteReq accesses(hits+misses) (Count)
system.cpu0.dcache.ReadReq.hits::cpu0.data       223385                       # number of ReadReq hits (Count)
system.cpu0.dcache.ReadReq.hits::total         223385                       # number of ReadReq hits (Count)
system.cpu0.dcache.ReadReq.misses::cpu0.data         1242                       # number of ReadReq misses (Count)
system.cpu0.dcache.ReadReq.misses::total         1242                       # number of ReadReq misses (Count)
system.cpu0.dcache.ReadReq.missLatency::cpu0.data     87432000                       # number of ReadReq miss ticks (Tick)
system.cpu0.dcache.ReadReq.missLatency::total     87432000                       # number of ReadReq miss ticks (Tick)
system.cpu0.dcache.ReadReq.accesses::cpu0.data       224627                       # number of ReadReq accesses(hits+misses) (Count)
system.cpu0.dcache.ReadReq.accesses::total       224627                       # number of ReadReq accesses(hits+misses) (Count)
system.cpu0.dcache.ReadReq.missRate::cpu0.data     0.005529                       # miss rate for ReadReq accesses (Ratio)
system.cpu0.dcache.ReadReq.missRate::total     0.005529                       # miss rate for ReadReq accesses (Ratio)
system.cpu0.dcache.ReadReq.avgMissLatency::cpu0.data 70396.135266                       # average ReadReq miss latency ((Tick/Count))
system.cpu0.dcache.ReadReq.avgMissLatency::total 70396.135266                       # average ReadReq miss latency ((Tick/Count))
system.cpu0.dcache.ReadReq.mshrMisses::cpu0.data         1242                       # number of ReadReq MSHR misses (Count)
system.cpu0.dcache.ReadReq.mshrMisses::total         1242                       # number of ReadReq MSHR misses (Count)
system.cpu0.dcache.ReadReq.mshrMissLatency::cpu0.data     86190000                       # number of ReadReq MSHR miss ticks (Tick)
system.cpu0.dcache.ReadReq.mshrMissLatency::total     86190000                       # number of ReadReq MSHR miss ticks (Tick)
system.cpu0.dcache.ReadReq.mshrMissRate::cpu0.data     0.005529                       # mshr miss rate for ReadReq accesses (Ratio)
system.cpu0.dcache.ReadReq.mshrMissRate::total     0.005529                       # mshr miss rate for ReadReq accesses (Ratio)
system.cpu0.dcache.ReadReq.avgMshrMissLatency::cpu0.data 69396.135266                       # average ReadReq mshr miss latency ((Tick/Count))
system.cpu0.dcache.ReadReq.avgMshrMissLatency::total 69396.135266                       # average ReadReq mshr miss latency ((Tick/Count))
system.cpu0.dcache.WriteReq.hits::cpu0.data        52832                       # number of WriteReq hits (Count)
system.cpu0.dcache.WriteReq.hits::total         52832                       # number of WriteReq hits (Count)
system.cpu0.dcache.WriteReq.misses::cpu0.data          373                       # number of WriteReq misses (Count)
system.cpu0.dcache.WriteReq.misses::total          373                       # number of WriteReq misses (Count)
system.cpu0.dcache.WriteReq.missLatency::cpu0.data     28467500                       # number of WriteReq miss ticks (Tick)
system.cpu0.dcache.WriteReq.missLatency::total     28467500                       # number of WriteReq miss ticks (Tick)
system.cpu0.dcache.WriteReq.accesses::cpu0.data        53205                       # number of WriteReq accesses(hits+misses) (Count)
system.cpu0.dcache.WriteReq.accesses::total        53205                       # number of WriteReq accesses(hits+misses) (Count)
system.cpu0.dcache.WriteReq.missRate::cpu0.data     0.007011                       # miss rate for WriteReq accesses (Ratio)
system.cpu0.dcache.WriteReq.missRate::total     0.007011                       # miss rate for WriteReq accesses (Ratio)
system.cpu0.dcache.WriteReq.avgMissLatency::cpu0.data 76320.375335                       # average WriteReq miss latency ((Tick/Count))
system.cpu0.dcache.WriteReq.avgMissLatency::total 76320.375335                       # average WriteReq miss latency ((Tick/Count))
system.cpu0.dcache.WriteReq.mshrMisses::cpu0.data          373                       # number of WriteReq MSHR misses (Count)
system.cpu0.dcache.WriteReq.mshrMisses::total          373                       # number of WriteReq MSHR misses (Count)
system.cpu0.dcache.WriteReq.mshrMissLatency::cpu0.data     28094500                       # number of WriteReq MSHR miss ticks (Tick)
system.cpu0.dcache.WriteReq.mshrMissLatency::total     28094500                       # number of WriteReq MSHR miss ticks (Tick)
system.cpu0.dcache.WriteReq.mshrMissRate::cpu0.data     0.007011                       # mshr miss rate for WriteReq accesses (Ratio)
system.cpu0.dcache.WriteReq.mshrMissRate::total     0.007011                       # mshr miss rate for WriteReq accesses (Ratio)
system.cpu0.dcache.WriteReq.avgMshrMissLatency::cpu0.data 75320.375335                       # average WriteReq mshr miss latency ((Tick/Count))
system.cpu0.dcache.WriteReq.avgMshrMissLatency::total 75320.375335                       # average WriteReq mshr miss latency ((Tick/Count))
system.cpu0.dcache.power_state.pwrStateResidencyTicks::UNDEFINED   1576477500                       # Cumulative time (in ticks) in various power states (Tick)
system.cpu0.dcache.tags.tagsInUse          477.938603                       # Average ticks per tags in use ((Tick/Count))
system.cpu0.dcache.tags.totalRefs              277856                       # Total number of references to valid blocks. (Count)
system.cpu0.dcache.tags.sampledRefs              1617                       # Sample count of references to valid blocks. (Count)
system.cpu0.dcache.tags.avgRefs            171.834261                       # Average number of references to valid blocks. ((Count/Count))
system.cpu0.dcache.tags.warmupTick             174500                       # The tick when the warmup percentage was hit. (Tick)
system.cpu0.dcache.tags.occupancies::cpu0.data   477.938603                       # Average occupied blocks per tick, per requestor ((Count/Tick))
system.cpu0.dcache.tags.avgOccs::cpu0.data     0.933474                       # Average percentage of cache occupancy ((Ratio/Tick))
system.cpu0.dcache.tags.avgOccs::total       0.933474                       # Average percentage of cache occupancy ((Ratio/Tick))
system.cpu0.dcache.tags.occupanciesTaskId::1024          507                       # Occupied blocks per task id (Count)
system.cpu0.dcache.tags.ageTaskId_1024::0           19                       # Occupied blocks per task id, per block age (Count)
system.cpu0.dcache.tags.ageTaskId_1024::1           22                       # Occupied blocks per task id, per block age (Count)
system.cpu0.dcache.tags.ageTaskId_1024::3          466                       # Occupied blocks per task id, per block age (Count)
system.cpu0.dcache.tags.ratioOccsTaskId::1024     0.990234                       # Ratio of occupied blocks and all blocks, per task id (Ratio)
system.cpu0.dcache.tags.tagAccesses            557329                       # Number of tag accesses (Count)
system.cpu0.dcache.tags.dataAccesses           557329                       # Number of data accesses (Count)
system.cpu0.dcache.tags.power_state.pwrStateResidencyTicks::UNDEFINED   1576477500                       # Cumulative time (in ticks) in various power states (Tick)
system.cpu0.dtb_walker_cache.blockedCycles::no_mshrs            0                       # number of cycles access was blocked (Cycle)
system.cpu0.dtb_walker_cache.blockedCycles::no_targets            0                       # number of cycles access was blocked (Cycle)
system.cpu0.dtb_walker_cache.blockedCauses::no_mshrs            0                       # number of times access was blocked (Count)
system.cpu0.dtb_walker_cache.blockedCauses::no_targets            0                       # number of times access was blocked (Count)
system.cpu0.dtb_walker_cache.avgBlocked::no_mshrs          nan                       # average number of cycles each access was blocked ((Cycle/Count))
system.cpu0.dtb_walker_cache.avgBlocked::no_targets          nan                       # average number of cycles each access was blocked ((Cycle/Count))
system.cpu0.dtb_walker_cache.replacements            0                       # number of replacements (Count)
system.cpu0.dtb_walker_cache.power_state.pwrStateResidencyTicks::UNDEFINED   1576477500                       # Cumulative time (in ticks) in various power states (Tick)
system.cpu0.dtb_walker_cache.tags.tagsInUse            0                       # Average ticks per tags in use ((Tick/Count))
system.cpu0.dtb_walker_cache.tags.totalRefs            0                       # Total number of references to valid blocks. (Count)
system.cpu0.dtb_walker_cache.tags.sampledRefs            0                       # Sample count of references to valid blocks. (Count)
system.cpu0.dtb_walker_cache.tags.avgRefs          nan                       # Average number of references to valid blocks. ((Count/Count))
system.cpu0.dtb_walker_cache.tags.warmupTick            0                       # The tick when the warmup percentage was hit. (Tick)
system.cpu0.dtb_walker_cache.tags.tagAccesses            0                       # Number of tag accesses (Count)
system.cpu0.dtb_walker_cache.tags.dataAccesses            0                       # Number of data accesses (Count)
system.cpu0.dtb_walker_cache.tags.power_state.pwrStateResidencyTicks::UNDEFINED   1576477500                       # Cumulative time (in ticks) in various power states (Tick)
system.cpu0.exec_context.thread_0.numMatAluAccesses            0                       # Number of matrix alu accesses (Count)
system.cpu0.exec_context.thread_0.numCallsReturns         1785                       # Number of times a function call or return occured (Count)
system.cpu0.exec_context.thread_0.numMatInsts            0                       # Number of matrix instructions (Count)
system.cpu0.exec_context.thread_0.numIdleCycles     0.002000                       # Number of idle cycles (Cycle)
system.cpu0.exec_context.thread_0.numBusyCycles 3152954.998000                       # Number of busy cycles (Cycle)
system.cpu0.exec_context.thread_0.notIdleFraction     1.000000                       # Percentage of non-idle cycles (Ratio)
system.cpu0.exec_context.thread_0.idleFraction     0.000000                       # Percentage of idle cycles (Ratio)
system.cpu0.executeStats0.numInsts                  0                       # Number of executed instructions (Count)
system.cpu0.executeStats0.numNop                    0                       # Number of nop insts executed (Count)
system.cpu0.executeStats0.numBranches               0                       # Number of branches executed (Count)
system.cpu0.executeStats0.numLoadInsts              0                       # Number of load instructions executed (Count)
system.cpu0.executeStats0.numStoreInsts        277915                       # Number of stores executed (Count)
system.cpu0.executeStats0.instRate                  0                       # Inst execution rate ((Count/Cycle))
system.cpu0.executeStats0.numFpAluAccesses         6492                       # Number of float alu accesses (Count)
system.cpu0.executeStats0.numFpRegReads          9475                       # Number of times the floating registers were read (Count)
system.cpu0.executeStats0.numFpRegWrites         4845                       # Number of times the floating registers were written (Count)
system.cpu0.executeStats0.numIntAluAccesses      1434037                       # Number of integer alu accesses (Count)
system.cpu0.executeStats0.numIntRegReads      1551929                       # Number of times the integer registers were read (Count)
system.cpu0.executeStats0.numIntRegWrites       947947                       # Number of times the integer registers were written (Count)
system.cpu0.executeStats0.numMemRefs           277915                       # Number of memory refs (Count)
system.cpu0.executeStats0.numMiscRegReads       718055                       # Number of times the Misc registers were read (Count)
system.cpu0.executeStats0.numVecAluAccesses            0                       # Number of vector alu accesses (Count)
system.cpu0.executeStats0.numDiscardedOps            0                       # Number of ops (including micro ops) which were discarded before commit (Count)
system.cpu0.fetchStats0.numInsts               846488                       # Number of instructions fetched (thread level) (Count)
system.cpu0.fetchStats0.numOps                1441019                       # Number of ops (including micro ops) fetched (thread level) (Count)
system.cpu0.fetchStats0.fetchRate            0.268474                       # Number of inst fetches per cycle ((Count/Cycle))
system.cpu0.fetchStats0.numBranches            220845                       # Number of branches fetched (Count)
system.cpu0.fetchStats0.branchRate           0.070044                       # Number of branch fetches per cycle (Ratio)
system.cpu0.fetchStats0.numFetchSuspends            0                       # Number of times Execute suspended instruction fetching (Count)
system.cpu0.icache.demandHits::cpu0.inst      1078631                       # number of demand (read+write) hits (Count)
system.cpu0.icache.demandHits::total          1078631                       # number of demand (read+write) hits (Count)
system.cpu0.icache.overallHits::cpu0.inst      1078631                       # number of overall hits (Count)
system.cpu0.icache.overallHits::total         1078631                       # number of overall hits (Count)
system.cpu0.icache.demandMisses::cpu0.inst         1265                       # number of demand (read+write) misses (Count)
system.cpu0.icache.demandMisses::total           1265                       # number of demand (read+write) misses (Count)
system.cpu0.icache.overallMisses::cpu0.inst         1265                       # number of overall misses (Count)
system.cpu0.icache.overallMisses::total          1265                       # number of overall misses (Count)
system.cpu0.icache.demandMissLatency::cpu0.inst    105598000                       # number of demand (read+write) miss ticks (Tick)
system.cpu0.icache.demandMissLatency::total    105598000                       # number of demand (read+write) miss ticks (Tick)
system.cpu0.icache.overallMissLatency::cpu0.inst    105598000                       # number of overall miss ticks (Tick)
system.cpu0.icache.overallMissLatency::total    105598000                       # number of overall miss ticks (Tick)
system.cpu0.icache.demandAccesses::cpu0.inst      1079896                       # number of demand (read+write) accesses (Count)
system.cpu0.icache.demandAccesses::total      1079896                       # number of demand (read+write) accesses (Count)
system.cpu0.icache.overallAccesses::cpu0.inst      1079896                       # number of overall (read+write) accesses (Count)
system.cpu0.icache.overallAccesses::total      1079896                       # number of overall (read+write) accesses (Count)
system.cpu0.icache.demandMissRate::cpu0.inst     0.001171                       # miss rate for demand accesses (Ratio)
system.cpu0.icache.demandMissRate::total     0.001171                       # miss rate for demand accesses (Ratio)
system.cpu0.icache.overallMissRate::cpu0.inst     0.001171                       # miss rate for overall accesses (Ratio)
system.cpu0.icache.overallMissRate::total     0.001171                       # miss rate for overall accesses (Ratio)
system.cpu0.icache.demandAvgMissLatency::cpu0.inst 83476.679842                       # average overall miss latency in ticks ((Tick/Count))
system.cpu0.icache.demandAvgMissLatency::total 83476.679842                       # average overall miss latency in ticks ((Tick/Count))
system.cpu0.icache.overallAvgMissLatency::cpu0.inst 83476.679842                       # average overall miss latency ((Tick/Count))
system.cpu0.icache.overallAvgMissLatency::total 83476.679842                       # average overall miss latency ((Tick/Count))
system.cpu0.icache.blockedCycles::no_mshrs            0                       # number of cycles access was blocked (Cycle)
system.cpu0.icache.blockedCycles::no_targets            0                       # number of cycles access was blocked (Cycle)
system.cpu0.icache.blockedCauses::no_mshrs            0                       # number of times access was blocked (Count)
system.cpu0.icache.blockedCauses::no_targets            0                       # number of times access was blocked (Count)
system.cpu0.icache.avgBlocked::no_mshrs           nan                       # average number of cycles each access was blocked ((Cycle/Count))
system.cpu0.icache.avgBlocked::no_targets          nan                       # average number of cycles each access was blocked ((Cycle/Count))
system.cpu0.icache.writebacks::writebacks          764                       # number of writebacks (Count)
system.cpu0.icache.writebacks::total              764                       # number of writebacks (Count)
system.cpu0.icache.demandMshrMisses::cpu0.inst         1265                       # number of demand (read+write) MSHR misses (Count)
system.cpu0.icache.demandMshrMisses::total         1265                       # number of demand (read+write) MSHR misses (Count)
system.cpu0.icache.overallMshrMisses::cpu0.inst         1265                       # number of overall MSHR misses (Count)
system.cpu0.icache.overallMshrMisses::total         1265                       # number of overall MSHR misses (Count)
system.cpu0.icache.demandMshrMissLatency::cpu0.inst    104333000                       # number of demand (read+write) MSHR miss ticks (Tick)
system.cpu0.icache.demandMshrMissLatency::total    104333000                       # number of demand (read+write) MSHR miss ticks (Tick)
system.cpu0.icache.overallMshrMissLatency::cpu0.inst    104333000                       # number of overall MSHR miss ticks (Tick)
system.cpu0.icache.overallMshrMissLatency::total    104333000                       # number of overall MSHR miss ticks (Tick)
system.cpu0.icache.demandMshrMissRate::cpu0.inst     0.001171                       # mshr miss ratio for demand accesses (Ratio)
system.cpu0.icache.demandMshrMissRate::total     0.001171                       # mshr miss ratio for demand accesses (Ratio)
system.cpu0.icache.overallMshrMissRate::cpu0.inst     0.001171                       # mshr miss ratio for overall accesses (Ratio)
system.cpu0.icache.overallMshrMissRate::total     0.001171                       # mshr miss ratio for overall accesses (Ratio)
system.cpu0.icache.demandAvgMshrMissLatency::cpu0.inst 82476.679842                       # average overall mshr miss latency ((Tick/Count))
system.cpu0.icache.demandAvgMshrMissLatency::total 82476.679842                       # average overall mshr miss latency ((Tick/Count))
system.cpu0.icache.overallAvgMshrMissLatency::cpu0.inst 82476.679842                       # average overall mshr miss latency ((Tick/Count))
system.cpu0.icache.overallAvgMshrMissLatency::total 82476.679842                       # average overall mshr miss latency ((Tick/Count))
system.cpu0.icache.replacements                   764                       # number of replacements (Count)
system.cpu0.icache.ReadReq.hits::cpu0.inst      1078631                       # number of ReadReq hits (Count)
system.cpu0.icache.ReadReq.hits::total        1078631                       # number of ReadReq hits (Count)
system.cpu0.icache.ReadReq.misses::cpu0.inst         1265                       # number of ReadReq misses (Count)
system.cpu0.icache.ReadReq.misses::total         1265                       # number of ReadReq misses (Count)
system.cpu0.icache.ReadReq.missLatency::cpu0.inst    105598000                       # number of ReadReq miss ticks (Tick)
system.cpu0.icache.ReadReq.missLatency::total    105598000                       # number of ReadReq miss ticks (Tick)
system.cpu0.icache.ReadReq.accesses::cpu0.inst      1079896                       # number of ReadReq accesses(hits+misses) (Count)
system.cpu0.icache.ReadReq.accesses::total      1079896                       # number of ReadReq accesses(hits+misses) (Count)
system.cpu0.icache.ReadReq.missRate::cpu0.inst     0.001171                       # miss rate for ReadReq accesses (Ratio)
system.cpu0.icache.ReadReq.missRate::total     0.001171                       # miss rate for ReadReq accesses (Ratio)
system.cpu0.icache.ReadReq.avgMissLatency::cpu0.inst 83476.679842                       # average ReadReq miss latency ((Tick/Count))
system.cpu0.icache.ReadReq.avgMissLatency::total 83476.679842                       # average ReadReq miss latency ((Tick/Count))
system.cpu0.icache.ReadReq.mshrMisses::cpu0.inst         1265                       # number of ReadReq MSHR misses (Count)
system.cpu0.icache.ReadReq.mshrMisses::total         1265                       # number of ReadReq MSHR misses (Count)
system.cpu0.icache.ReadReq.mshrMissLatency::cpu0.inst    104333000                       # number of ReadReq MSHR miss ticks (Tick)
system.cpu0.icache.ReadReq.mshrMissLatency::total    104333000                       # number of ReadReq MSHR miss ticks (Tick)
system.cpu0.icache.ReadReq.mshrMissRate::cpu0.inst     0.001171                       # mshr miss rate for ReadReq accesses (Ratio)
system.cpu0.icache.ReadReq.mshrMissRate::total     0.001171                       # mshr miss rate for ReadReq accesses (Ratio)
system.cpu0.icache.ReadReq.avgMshrMissLatency::cpu0.inst 82476.679842                       # average ReadReq mshr miss latency ((Tick/Count))
system.cpu0.icache.ReadReq.avgMshrMissLatency::total 82476.679842                       # average ReadReq mshr miss latency ((Tick/Count))
system.cpu0.icache.power_state.pwrStateResidencyTicks::UNDEFINED   1576477500                       # Cumulative time (in ticks) in various power states (Tick)
system.cpu0.icache.tags.tagsInUse          468.051546                       # Average ticks per tags in use ((Tick/Count))
system.cpu0.icache.tags.totalRefs             1079896                       # Total number of references to valid blocks. (Count)
system.cpu0.icache.tags.sampledRefs              1265                       # Sample count of references to valid blocks. (Count)
system.cpu0.icache.tags.avgRefs            853.672727                       # Average number of references to valid blocks. ((Count/Count))
system.cpu0.icache.tags.warmupTick              87500                       # The tick when the warmup percentage was hit. (Tick)
system.cpu0.icache.tags.occupancies::cpu0.inst   468.051546                       # Average occupied blocks per tick, per requestor ((Count/Tick))
system.cpu0.icache.tags.avgOccs::cpu0.inst     0.914163                       # Average percentage of cache occupancy ((Ratio/Tick))
system.cpu0.icache.tags.avgOccs::total       0.914163                       # Average percentage of cache occupancy ((Ratio/Tick))
system.cpu0.icache.tags.occupanciesTaskId::1024          501                       # Occupied blocks per task id (Count)
system.cpu0.icache.tags.ageTaskId_1024::0           90                       # Occupied blocks per task id, per block age (Count)
system.cpu0.icache.tags.ageTaskId_1024::1          110                       # Occupied blocks per task id, per block age (Count)
system.cpu0.icache.tags.ageTaskId_1024::3          301                       # Occupied blocks per task id, per block age (Count)
system.cpu0.icache.tags.ratioOccsTaskId::1024     0.978516                       # Ratio of occupied blocks and all blocks, per task id (Ratio)
system.cpu0.icache.tags.tagAccesses           2161057                       # Number of tag accesses (Count)
system.cpu0.icache.tags.dataAccesses          2161057                       # Number of data accesses (Count)
system.cpu0.icache.tags.power_state.pwrStateResidencyTicks::UNDEFINED   1576477500                       # Cumulative time (in ticks) in various power states (Tick)
system.cpu0.interrupts.clk_domain.clock          8000                       # Clock period in ticks (Tick)
system.cpu0.itb_walker_cache.blockedCycles::no_mshrs            0                       # number of cycles access was blocked (Cycle)
system.cpu0.itb_walker_cache.blockedCycles::no_targets            0                       # number of cycles access was blocked (Cycle)
system.cpu0.itb_walker_cache.blockedCauses::no_mshrs            0                       # number of times access was blocked (Count)
system.cpu0.itb_walker_cache.blockedCauses::no_targets            0                       # number of times access was blocked (Count)
system.cpu0.itb_walker_cache.avgBlocked::no_mshrs          nan                       # average number of cycles each access was blocked ((Cycle/Count))
system.cpu0.itb_walker_cache.avgBlocked::no_targets          nan                       # average number of cycles each access was blocked ((Cycle/Count))
system.cpu0.itb_walker_cache.replacements            0                       # number of replacements (Count)
system.cpu0.itb_walker_cache.power_state.pwrStateResidencyTicks::UNDEFINED   1576477500                       # Cumulative time (in ticks) in various power states (Tick)
system.cpu0.itb_walker_cache.tags.tagsInUse            0                       # Average ticks per tags in use ((Tick/Count))
system.cpu0.itb_walker_cache.tags.totalRefs            0                       # Total number of references to valid blocks. (Count)
system.cpu0.itb_walker_cache.tags.sampledRefs            0                       # Sample count of references to valid blocks. (Count)
system.cpu0.itb_walker_cache.tags.avgRefs          nan                       # Average number of references to valid blocks. ((Count/Count))
system.cpu0.itb_walker_cache.tags.warmupTick            0                       # The tick when the warmup percentage was hit. (Tick)
system.cpu0.itb_walker_cache.tags.tagAccesses            0                       # Number of tag accesses (Count)
system.cpu0.itb_walker_cache.tags.dataAccesses            0                       # Number of data accesses (Count)
system.cpu0.itb_walker_cache.tags.power_state.pwrStateResidencyTicks::UNDEFINED   1576477500                       # Cumulative time (in ticks) in various power states (Tick)
system.cpu0.mmu.dtb.rdAccesses                 224690                       # TLB accesses on read requests (Count)
system.cpu0.mmu.dtb.wrAccesses                  53228                       # TLB accesses on write requests (Count)
system.cpu0.mmu.dtb.rdMisses                      163                       # TLB misses on read requests (Count)
system.cpu0.mmu.dtb.wrMisses                       29                       # TLB misses on write requests (Count)
system.cpu0.mmu.dtb.walker.power_state.pwrStateResidencyTicks::UNDEFINED   1576477500                       # Cumulative time (in ticks) in various power states (Tick)
system.cpu0.mmu.itb.rdAccesses                      0                       # TLB accesses on read requests (Count)
system.cpu0.mmu.itb.wrAccesses                1079945                       # TLB accesses on write requests (Count)
system.cpu0.mmu.itb.rdMisses                        0                       # TLB misses on read requests (Count)
system.cpu0.mmu.itb.wrMisses                      200                       # TLB misses on write requests (Count)
system.cpu0.mmu.itb.walker.power_state.pwrStateResidencyTicks::UNDEFINED   1576477500                       # Cumulative time (in ticks) in various power states (Tick)
system.cpu0.power_state.pwrStateResidencyTicks::ON   1576477500                       # Cumulative time (in ticks) in various power states (Tick)
system.cpu0.thread_0.numInsts                       0                       # Number of Instructions committed (Count)
system.cpu0.thread_0.numOps                         0                       # Number of Ops committed (Count)
system.cpu0.thread_0.numMemRefs                     0                       # Number of Memory References (Count)
system.cpu0.workload.numSyscalls                   34                       # Number of system calls (Count)
system.cpu1.numCycles                         3150413                       # Number of cpu cycles simulated (Cycle)
system.cpu1.cpi                              3.721746                       # CPI: cycles per instruction (core level) ((Cycle/Count))
system.cpu1.ipc                              0.268691                       # IPC: instructions per cycle (core level) ((Count/Cycle))
system.cpu1.numWorkItemsStarted                     0                       # Number of work items this cpu started (Count)
system.cpu1.numWorkItemsCompleted                   0                       # Number of work items this cpu completed (Count)
system.cpu1.commitStats0.numInsts              846488                       # Number of instructions committed (thread level) (Count)
system.cpu1.commitStats0.numOps               1441019                       # Number of ops (including micro ops) committed (thread level) (Count)
system.cpu1.commitStats0.numInstsNotNOP             0                       # Number of instructions committed excluding NOPs or prefetches (Count)
system.cpu1.commitStats0.numOpsNotNOP               0                       # Number of Ops (including micro ops) Simulated (Count)
system.cpu1.commitStats0.cpi                 3.721746                       # CPI: cycles per instruction (thread level) ((Cycle/Count))
system.cpu1.commitStats0.ipc                 0.268691                       # IPC: instructions per cycle (thread level) ((Count/Cycle))
system.cpu1.commitStats0.numMemRefs                 0                       # Number of memory references committed (Count)
system.cpu1.commitStats0.numFpInsts              6492                       # Number of float instructions (Count)
system.cpu1.commitStats0.numIntInsts          1434037                       # Number of integer instructions (Count)
system.cpu1.commitStats0.numLoadInsts          224688                       # Number of load instructions (Count)
system.cpu1.commitStats0.numStoreInsts          53227                       # Number of store instructions (Count)
system.cpu1.commitStats0.numVecInsts                0                       # Number of vector instructions (Count)
system.cpu1.commitStats0.committedInstType::No_OpClass         2369      0.16%      0.16% # Class of committed instruction. (Count)
system.cpu1.commitStats0.committedInstType::IntAlu      1154641     80.13%     80.29% # Class of committed instruction. (Count)
system.cpu1.commitStats0.committedInstType::IntMult          707      0.05%     80.34% # Class of committed instruction. (Count)
system.cpu1.commitStats0.committedInstType::IntDiv         1451      0.10%     80.44% # Class of committed instruction. (Count)
system.cpu1.commitStats0.committedInstType::FloatAdd          408      0.03%     80.47% # Class of committed instruction. (Count)
system.cpu1.commitStats0.committedInstType::FloatCmp            0      0.00%     80.47% # Class of committed instruction. (Count)
system.cpu1.commitStats0.committedInstType::FloatCvt            0      0.00%     80.47% # Class of committed instruction. (Count)
system.cpu1.commitStats0.committedInstType::FloatMult            0      0.00%     80.47% # Class of committed instruction. (Count)
system.cpu1.commitStats0.committedInstType::FloatMultAcc            0      0.00%     80.47% # Class of committed instruction. (Count)
system.cpu1.commitStats0.committedInstType::FloatDiv            0      0.00%     80.47% # Class of committed instruction. (Count)
system.cpu1.commitStats0.committedInstType::FloatMisc            0      0.00%     80.47% # Class of committed instruction. (Count)
system.cpu1.commitStats0.committedInstType::FloatSqrt            0      0.00%     80.47% # Class of committed instruction. (Count)
system.cpu1.commitStats0.committedInstType::SimdAdd          416      0.03%     80.50% # Class of committed instruction. (Count)
system.cpu1.commitStats0.committedInstType::SimdAddAcc            0      0.00%     80.50% # Class of committed instruction. (Count)
system.cpu1.commitStats0.committedInstType::SimdAlu          917      0.06%     80.56% # Class of committed instruction. (Count)
system.cpu1.commitStats0.committedInstType::SimdCmp            2      0.00%     80.56% # Class of committed instruction. (Count)
system.cpu1.commitStats0.committedInstType::SimdCvt          960      0.07%     80.63% # Class of committed instruction. (Count)
system.cpu1.commitStats0.committedInstType::SimdMisc         1007      0.07%     80.70% # Class of committed instruction. (Count)
system.cpu1.commitStats0.committedInstType::SimdMult            0      0.00%     80.70% # Class of committed instruction. (Count)
system.cpu1.commitStats0.committedInstType::SimdMultAcc            0      0.00%     80.70% # Class of committed instruction. (Count)
system.cpu1.commitStats0.committedInstType::SimdMatMultAcc            0      0.00%     80.70% # Class of committed instruction. (Count)
system.cpu1.commitStats0.committedInstType::SimdShift          226      0.02%     80.71% # Class of committed instruction. (Count)
system.cpu1.commitStats0.committedInstType::SimdShiftAcc            0      0.00%     80.71% # Class of committed instruction. (Count)
system.cpu1.commitStats0.committedInstType::SimdDiv            0      0.00%     80.71% # Class of committed instruction. (Count)
system.cpu1.commitStats0.committedInstType::SimdSqrt            0      0.00%     80.71% # Class of committed instruction. (Count)
system.cpu1.commitStats0.committedInstType::SimdFloatAdd            0      0.00%     80.71% # Class of committed instruction. (Count)
system.cpu1.commitStats0.committedInstType::SimdFloatAlu            0      0.00%     80.71% # Class of committed instruction. (Count)
system.cpu1.commitStats0.committedInstType::SimdFloatCmp            0      0.00%     80.71% # Class of committed instruction. (Count)
system.cpu1.commitStats0.committedInstType::SimdFloatCvt            0      0.00%     80.71% # Class of committed instruction. (Count)
system.cpu1.commitStats0.committedInstType::SimdFloatDiv            0      0.00%     80.71% # Class of committed instruction. (Count)
system.cpu1.commitStats0.committedInstType::SimdFloatMisc            0      0.00%     80.71% # Class of committed instruction. (Count)
system.cpu1.commitStats0.committedInstType::SimdFloatMult            0      0.00%     80.71% # Class of committed instruction. (Count)
system.cpu1.commitStats0.committedInstType::SimdFloatMultAcc            0      0.00%     80.71% # Class of committed instruction. (Count)
system.cpu1.commitStats0.committedInstType::SimdFloatMatMultAcc            0      0.00%     80.71% # Class of committed instruction. (Count)
system.cpu1.commitStats0.committedInstType::SimdFloatSqrt            0      0.00%     80.71% # Class of committed instruction. (Count)
system.cpu1.commitStats0.committedInstType::SimdReduceAdd            0      0.00%     80.71% # Class of committed instruction. (Count)
system.cpu1.commitStats0.committedInstType::SimdReduceAlu            0      0.00%     80.71% # Class of committed instruction. (Count)
system.cpu1.commitStats0.committedInstType::SimdReduceCmp            0      0.00%     80.71% # Class of committed instruction. (Count)
system.cpu1.commitStats0.committedInstType::SimdFloatReduceAdd            0      0.00%     80.71% # Class of committed instruction. (Count)
system.cpu1.commitStats0.committedInstType::SimdFloatReduceCmp            0      0.00%     80.71% # Class of committed instruction. (Count)
system.cpu1.commitStats0.committedInstType::SimdAes            0      0.00%     80.71% # Class of committed instruction. (Count)
system.cpu1.commitStats0.committedInstType::SimdAesMix            0      0.00%     80.71% # Class of committed instruction. (Count)
system.cpu1.commitStats0.committedInstType::SimdSha1Hash            0      0.00%     80.71% # Class of committed instruction. (Count)
system.cpu1.commitStats0.committedInstType::SimdSha1Hash2            0      0.00%     80.71% # Class of committed instruction. (Count)
system.cpu1.commitStats0.committedInstType::SimdSha256Hash            0      0.00%     80.71% # Class of committed instruction. (Count)
system.cpu1.commitStats0.committedInstType::SimdSha256Hash2            0      0.00%     80.71% # Class of committed instruction. (Count)
system.cpu1.commitStats0.committedInstType::SimdShaSigma2            0      0.00%     80.71% # Class of committed instruction. (Count)
system.cpu1.commitStats0.committedInstType::SimdShaSigma3            0      0.00%     80.71% # Class of committed instruction. (Count)
system.cpu1.commitStats0.committedInstType::SimdPredAlu            0      0.00%     80.71% # Class of committed instruction. (Count)
system.cpu1.commitStats0.committedInstType::Matrix            0      0.00%     80.71% # Class of committed instruction. (Count)
system.cpu1.commitStats0.committedInstType::MatrixMov            0      0.00%     80.71% # Class of committed instruction. (Count)
system.cpu1.commitStats0.committedInstType::MatrixOP            0      0.00%     80.71% # Class of committed instruction. (Count)
system.cpu1.commitStats0.committedInstType::MemRead       223632     15.52%     96.23% # Class of committed instruction. (Count)
system.cpu1.commitStats0.committedInstType::MemWrite        52095      3.62%     99.85% # Class of committed instruction. (Count)
system.cpu1.commitStats0.committedInstType::FloatMemRead         1056      0.07%     99.92% # Class of committed instruction. (Count)
system.cpu1.commitStats0.committedInstType::FloatMemWrite         1132      0.08%    100.00% # Class of committed instruction. (Count)
system.cpu1.commitStats0.committedInstType::IprAccess            0      0.00%    100.00% # Class of committed instruction. (Count)
system.cpu1.commitStats0.committedInstType::InstPrefetch            0      0.00%    100.00% # Class of committed instruction. (Count)
system.cpu1.commitStats0.committedInstType::VectorUnitStrideLoad            0      0.00%    100.00% # Class of committed instruction. (Count)
system.cpu1.commitStats0.committedInstType::VectorUnitStrideStore            0      0.00%    100.00% # Class of committed instruction. (Count)
system.cpu1.commitStats0.committedInstType::VectorUnitStrideMaskLoad            0      0.00%    100.00% # Class of committed instruction. (Count)
system.cpu1.commitStats0.committedInstType::VectorUnitStrideMaskStore            0      0.00%    100.00% # Class of committed instruction. (Count)
system.cpu1.commitStats0.committedInstType::VectorStridedLoad            0      0.00%    100.00% # Class of committed instruction. (Count)
system.cpu1.commitStats0.committedInstType::VectorStridedStore            0      0.00%    100.00% # Class of committed instruction. (Count)
system.cpu1.commitStats0.committedInstType::VectorIndexedLoad            0      0.00%    100.00% # Class of committed instruction. (Count)
system.cpu1.commitStats0.committedInstType::VectorIndexedStore            0      0.00%    100.00% # Class of committed instruction. (Count)
system.cpu1.commitStats0.committedInstType::VectorUnitStrideFaultOnlyFirstLoad            0      0.00%    100.00% # Class of committed instruction. (Count)
system.cpu1.commitStats0.committedInstType::VectorWholeRegisterLoad            0      0.00%    100.00% # Class of committed instruction. (Count)
system.cpu1.commitStats0.committedInstType::VectorWholeRegisterStore            0      0.00%    100.00% # Class of committed instruction. (Count)
system.cpu1.commitStats0.committedInstType::VectorIntegerArith            0      0.00%    100.00% # Class of committed instruction. (Count)
system.cpu1.commitStats0.committedInstType::VectorFloatArith            0      0.00%    100.00% # Class of committed instruction. (Count)
system.cpu1.commitStats0.committedInstType::VectorFloatConvert            0      0.00%    100.00% # Class of committed instruction. (Count)
system.cpu1.commitStats0.committedInstType::VectorIntegerReduce            0      0.00%    100.00% # Class of committed instruction. (Count)
system.cpu1.commitStats0.committedInstType::VectorFloatReduce            0      0.00%    100.00% # Class of committed instruction. (Count)
system.cpu1.commitStats0.committedInstType::VectorMisc            0      0.00%    100.00% # Class of committed instruction. (Count)
system.cpu1.commitStats0.committedInstType::VectorIntegerExtension            0      0.00%    100.00% # Class of committed instruction. (Count)
system.cpu1.commitStats0.committedInstType::VectorConfig            0      0.00%    100.00% # Class of committed instruction. (Count)
system.cpu1.commitStats0.committedInstType::total      1441019                       # Class of committed instruction. (Count)
system.cpu1.commitStats0.committedControl::IsControl       220845                       # Class of control type instructions committed (Count)
system.cpu1.commitStats0.committedControl::IsDirectControl       219568                       # Class of control type instructions committed (Count)
system.cpu1.commitStats0.committedControl::IsIndirectControl         1234                       # Class of control type instructions committed (Count)
system.cpu1.commitStats0.committedControl::IsCondControl       218053                       # Class of control type instructions committed (Count)
system.cpu1.commitStats0.committedControl::IsUncondControl         2749                       # Class of control type instructions committed (Count)
system.cpu1.commitStats0.committedControl::IsCall          895                       # Class of control type instructions committed (Count)
system.cpu1.commitStats0.committedControl::IsReturn          890                       # Class of control type instructions committed (Count)
system.cpu1.dcache.demandHits::cpu1.data       276221                       # number of demand (read+write) hits (Count)
system.cpu1.dcache.demandHits::total           276221                       # number of demand (read+write) hits (Count)
system.cpu1.dcache.overallHits::cpu1.data       276221                       # number of overall hits (Count)
system.cpu1.dcache.overallHits::total          276221                       # number of overall hits (Count)
system.cpu1.dcache.demandMisses::cpu1.data         1611                       # number of demand (read+write) misses (Count)
system.cpu1.dcache.demandMisses::total           1611                       # number of demand (read+write) misses (Count)
system.cpu1.dcache.overallMisses::cpu1.data         1611                       # number of overall misses (Count)
system.cpu1.dcache.overallMisses::total          1611                       # number of overall misses (Count)
system.cpu1.dcache.demandMissLatency::cpu1.data    114893000                       # number of demand (read+write) miss ticks (Tick)
system.cpu1.dcache.demandMissLatency::total    114893000                       # number of demand (read+write) miss ticks (Tick)
system.cpu1.dcache.overallMissLatency::cpu1.data    114893000                       # number of overall miss ticks (Tick)
system.cpu1.dcache.overallMissLatency::total    114893000                       # number of overall miss ticks (Tick)
system.cpu1.dcache.demandAccesses::cpu1.data       277832                       # number of demand (read+write) accesses (Count)
system.cpu1.dcache.demandAccesses::total       277832                       # number of demand (read+write) accesses (Count)
system.cpu1.dcache.overallAccesses::cpu1.data       277832                       # number of overall (read+write) accesses (Count)
system.cpu1.dcache.overallAccesses::total       277832                       # number of overall (read+write) accesses (Count)
system.cpu1.dcache.demandMissRate::cpu1.data     0.005798                       # miss rate for demand accesses (Ratio)
system.cpu1.dcache.demandMissRate::total     0.005798                       # miss rate for demand accesses (Ratio)
system.cpu1.dcache.overallMissRate::cpu1.data     0.005798                       # miss rate for overall accesses (Ratio)
system.cpu1.dcache.overallMissRate::total     0.005798                       # miss rate for overall accesses (Ratio)
system.cpu1.dcache.demandAvgMissLatency::cpu1.data 71317.815022                       # average overall miss latency in ticks ((Tick/Count))
system.cpu1.dcache.demandAvgMissLatency::total 71317.815022                       # average overall miss latency in ticks ((Tick/Count))
system.cpu1.dcache.overallAvgMissLatency::cpu1.data 71317.815022                       # average overall miss latency ((Tick/Count))
system.cpu1.dcache.overallAvgMissLatency::total 71317.815022                       # average overall miss latency ((Tick/Count))
system.cpu1.dcache.blockedCycles::no_mshrs            0                       # number of cycles access was blocked (Cycle)
system.cpu1.dcache.blockedCycles::no_targets            0                       # number of cycles access was blocked (Cycle)
system.cpu1.dcache.blockedCauses::no_mshrs            0                       # number of times access was blocked (Count)
system.cpu1.dcache.blockedCauses::no_targets            0                       # number of times access was blocked (Count)
system.cpu1.dcache.avgBlocked::no_mshrs           nan                       # average number of cycles each access was blocked ((Cycle/Count))
system.cpu1.dcache.avgBlocked::no_targets          nan                       # average number of cycles each access was blocked ((Cycle/Count))
system.cpu1.dcache.writebacks::writebacks          517                       # number of writebacks (Count)
system.cpu1.dcache.writebacks::total              517                       # number of writebacks (Count)
system.cpu1.dcache.demandMshrMisses::cpu1.data         1611                       # number of demand (read+write) MSHR misses (Count)
system.cpu1.dcache.demandMshrMisses::total         1611                       # number of demand (read+write) MSHR misses (Count)
system.cpu1.dcache.overallMshrMisses::cpu1.data         1611                       # number of overall MSHR misses (Count)
system.cpu1.dcache.overallMshrMisses::total         1611                       # number of overall MSHR misses (Count)
system.cpu1.dcache.demandMshrMissLatency::cpu1.data    113282000                       # number of demand (read+write) MSHR miss ticks (Tick)
system.cpu1.dcache.demandMshrMissLatency::total    113282000                       # number of demand (read+write) MSHR miss ticks (Tick)
system.cpu1.dcache.overallMshrMissLatency::cpu1.data    113282000                       # number of overall MSHR miss ticks (Tick)
system.cpu1.dcache.overallMshrMissLatency::total    113282000                       # number of overall MSHR miss ticks (Tick)
system.cpu1.dcache.demandMshrMissRate::cpu1.data     0.005798                       # mshr miss ratio for demand accesses (Ratio)
system.cpu1.dcache.demandMshrMissRate::total     0.005798                       # mshr miss ratio for demand accesses (Ratio)
system.cpu1.dcache.overallMshrMissRate::cpu1.data     0.005798                       # mshr miss ratio for overall accesses (Ratio)
system.cpu1.dcache.overallMshrMissRate::total     0.005798                       # mshr miss ratio for overall accesses (Ratio)
system.cpu1.dcache.demandAvgMshrMissLatency::cpu1.data 70317.815022                       # average overall mshr miss latency ((Tick/Count))
system.cpu1.dcache.demandAvgMshrMissLatency::total 70317.815022                       # average overall mshr miss latency ((Tick/Count))
system.cpu1.dcache.overallAvgMshrMissLatency::cpu1.data 70317.815022                       # average overall mshr miss latency ((Tick/Count))
system.cpu1.dcache.overallAvgMshrMissLatency::total 70317.815022                       # average overall mshr miss latency ((Tick/Count))
system.cpu1.dcache.replacements                  1104                       # number of replacements (Count)
system.cpu1.dcache.LockedRMWReadReq.hits::cpu1.data           10                       # number of LockedRMWReadReq hits (Count)
system.cpu1.dcache.LockedRMWReadReq.hits::total           10                       # number of LockedRMWReadReq hits (Count)
system.cpu1.dcache.LockedRMWReadReq.misses::cpu1.data            2                       # number of LockedRMWReadReq misses (Count)
system.cpu1.dcache.LockedRMWReadReq.misses::total            2                       # number of LockedRMWReadReq misses (Count)
system.cpu1.dcache.LockedRMWReadReq.missLatency::cpu1.data       113000                       # number of LockedRMWReadReq miss ticks (Tick)
system.cpu1.dcache.LockedRMWReadReq.missLatency::total       113000                       # number of LockedRMWReadReq miss ticks (Tick)
system.cpu1.dcache.LockedRMWReadReq.accesses::cpu1.data           12                       # number of LockedRMWReadReq accesses(hits+misses) (Count)
system.cpu1.dcache.LockedRMWReadReq.accesses::total           12                       # number of LockedRMWReadReq accesses(hits+misses) (Count)
system.cpu1.dcache.LockedRMWReadReq.missRate::cpu1.data     0.166667                       # miss rate for LockedRMWReadReq accesses (Ratio)
system.cpu1.dcache.LockedRMWReadReq.missRate::total     0.166667                       # miss rate for LockedRMWReadReq accesses (Ratio)
system.cpu1.dcache.LockedRMWReadReq.avgMissLatency::cpu1.data        56500                       # average LockedRMWReadReq miss latency ((Tick/Count))
system.cpu1.dcache.LockedRMWReadReq.avgMissLatency::total        56500                       # average LockedRMWReadReq miss latency ((Tick/Count))
system.cpu1.dcache.LockedRMWReadReq.mshrMisses::cpu1.data            2                       # number of LockedRMWReadReq MSHR misses (Count)
system.cpu1.dcache.LockedRMWReadReq.mshrMisses::total            2                       # number of LockedRMWReadReq MSHR misses (Count)
system.cpu1.dcache.LockedRMWReadReq.mshrMissLatency::cpu1.data       234000                       # number of LockedRMWReadReq MSHR miss ticks (Tick)
system.cpu1.dcache.LockedRMWReadReq.mshrMissLatency::total       234000                       # number of LockedRMWReadReq MSHR miss ticks (Tick)
system.cpu1.dcache.LockedRMWReadReq.mshrMissRate::cpu1.data     0.166667                       # mshr miss rate for LockedRMWReadReq accesses (Ratio)
system.cpu1.dcache.LockedRMWReadReq.mshrMissRate::total     0.166667                       # mshr miss rate for LockedRMWReadReq accesses (Ratio)
system.cpu1.dcache.LockedRMWReadReq.avgMshrMissLatency::cpu1.data       117000                       # average LockedRMWReadReq mshr miss latency ((Tick/Count))
system.cpu1.dcache.LockedRMWReadReq.avgMshrMissLatency::total       117000                       # average LockedRMWReadReq mshr miss latency ((Tick/Count))
system.cpu1.dcache.LockedRMWWriteReq.hits::cpu1.data           12                       # number of LockedRMWWriteReq hits (Count)
system.cpu1.dcache.LockedRMWWriteReq.hits::total           12                       # number of LockedRMWWriteReq hits (Count)
system.cpu1.dcache.LockedRMWWriteReq.accesses::cpu1.data           12                       # number of LockedRMWWriteReq accesses(hits+misses) (Count)
system.cpu1.dcache.LockedRMWWriteReq.accesses::total           12                       # number of LockedRMWWriteReq accesses(hits+misses) (Count)
system.cpu1.dcache.ReadReq.hits::cpu1.data       223397                       # number of ReadReq hits (Count)
system.cpu1.dcache.ReadReq.hits::total         223397                       # number of ReadReq hits (Count)
system.cpu1.dcache.ReadReq.misses::cpu1.data         1230                       # number of ReadReq misses (Count)
system.cpu1.dcache.ReadReq.misses::total         1230                       # number of ReadReq misses (Count)
system.cpu1.dcache.ReadReq.missLatency::cpu1.data     86274000                       # number of ReadReq miss ticks (Tick)
system.cpu1.dcache.ReadReq.missLatency::total     86274000                       # number of ReadReq miss ticks (Tick)
system.cpu1.dcache.ReadReq.accesses::cpu1.data       224627                       # number of ReadReq accesses(hits+misses) (Count)
system.cpu1.dcache.ReadReq.accesses::total       224627                       # number of ReadReq accesses(hits+misses) (Count)
system.cpu1.dcache.ReadReq.missRate::cpu1.data     0.005476                       # miss rate for ReadReq accesses (Ratio)
system.cpu1.dcache.ReadReq.missRate::total     0.005476                       # miss rate for ReadReq accesses (Ratio)
system.cpu1.dcache.ReadReq.avgMissLatency::cpu1.data 70141.463415                       # average ReadReq miss latency ((Tick/Count))
system.cpu1.dcache.ReadReq.avgMissLatency::total 70141.463415                       # average ReadReq miss latency ((Tick/Count))
system.cpu1.dcache.ReadReq.mshrMisses::cpu1.data         1230                       # number of ReadReq MSHR misses (Count)
system.cpu1.dcache.ReadReq.mshrMisses::total         1230                       # number of ReadReq MSHR misses (Count)
system.cpu1.dcache.ReadReq.mshrMissLatency::cpu1.data     85044000                       # number of ReadReq MSHR miss ticks (Tick)
system.cpu1.dcache.ReadReq.mshrMissLatency::total     85044000                       # number of ReadReq MSHR miss ticks (Tick)
system.cpu1.dcache.ReadReq.mshrMissRate::cpu1.data     0.005476                       # mshr miss rate for ReadReq accesses (Ratio)
system.cpu1.dcache.ReadReq.mshrMissRate::total     0.005476                       # mshr miss rate for ReadReq accesses (Ratio)
system.cpu1.dcache.ReadReq.avgMshrMissLatency::cpu1.data 69141.463415                       # average ReadReq mshr miss latency ((Tick/Count))
system.cpu1.dcache.ReadReq.avgMshrMissLatency::total 69141.463415                       # average ReadReq mshr miss latency ((Tick/Count))
system.cpu1.dcache.WriteReq.hits::cpu1.data        52824                       # number of WriteReq hits (Count)
system.cpu1.dcache.WriteReq.hits::total         52824                       # number of WriteReq hits (Count)
system.cpu1.dcache.WriteReq.misses::cpu1.data          381                       # number of WriteReq misses (Count)
system.cpu1.dcache.WriteReq.misses::total          381                       # number of WriteReq misses (Count)
system.cpu1.dcache.WriteReq.missLatency::cpu1.data     28619000                       # number of WriteReq miss ticks (Tick)
system.cpu1.dcache.WriteReq.missLatency::total     28619000                       # number of WriteReq miss ticks (Tick)
system.cpu1.dcache.WriteReq.accesses::cpu1.data        53205                       # number of WriteReq accesses(hits+misses) (Count)
system.cpu1.dcache.WriteReq.accesses::total        53205                       # number of WriteReq accesses(hits+misses) (Count)
[...]
system.mem_ctrls.dram.writeRowHitRate           73.86                       # Row buffer hit rate for writes (Ratio)
system.mem_ctrls.dram.bytesPerActivate::samples         1827                       # Bytes accessed per row activation (Byte)
system.mem_ctrls.dram.bytesPerActivate::mean   181.771210                       # Bytes accessed per row activation (Byte)
system.mem_ctrls.dram.bytesPerActivate::gmean   120.816957                       # Bytes accessed per row activation (Byte)
system.mem_ctrls.dram.bytesPerActivate::stdev   216.415259                       # Bytes accessed per row activation (Byte)
system.mem_ctrls.dram.bytesPerActivate::0-127          930     50.90%     50.90% # Bytes accessed per row activation (Byte)
system.mem_ctrls.dram.bytesPerActivate::128-255          500     27.37%     78.27% # Bytes accessed per row activation (Byte)
system.mem_ctrls.dram.bytesPerActivate::256-383          159      8.70%     86.97% # Bytes accessed per row activation (Byte)
system.mem_ctrls.dram.bytesPerActivate::384-511           80      4.38%     91.35% # Bytes accessed per row activation (Byte)
system.mem_ctrls.dram.bytesPerActivate::512-639           37      2.03%     93.38% # Bytes accessed per row activation (Byte)
system.mem_ctrls.dram.bytesPerActivate::640-767           29      1.59%     94.96% # Bytes accessed per row activation (Byte)
system.mem_ctrls.dram.bytesPerActivate::768-895           25      1.37%     96.33% # Bytes accessed per row activation (Byte)
system.mem_ctrls.dram.bytesPerActivate::896-1023           13      0.71%     97.04% # Bytes accessed per row activation (Byte)
system.mem_ctrls.dram.bytesPerActivate::1024-1151           54      2.96%    100.00% # Bytes accessed per row activation (Byte)
system.mem_ctrls.dram.bytesPerActivate::total         1827                       # Bytes accessed per row activation (Byte)
system.mem_ctrls.dram.bytesRead                322624                       # Total bytes read (Byte)
system.mem_ctrls.dram.bytesWritten              11264                       # Total bytes written (Byte)
system.mem_ctrls.dram.avgRdBW              204.648655                       # Average DRAM read bandwidth in MiBytes/s ((Byte/Second))
system.mem_ctrls.dram.avgWrBW                7.145043                       # Average DRAM write bandwidth in MiBytes/s ((Byte/Second))
system.mem_ctrls.dram.peakBW                 12800.00                       # Theoretical peak bandwidth in MiByte/s ((Byte/Second))
system.mem_ctrls.dram.busUtil                    1.65                       # Data bus utilization in percentage (Ratio)
system.mem_ctrls.dram.busUtilRead                1.60                       # Data bus utilization in percentage for reads (Ratio)
system.mem_ctrls.dram.busUtilWrite               0.06                       # Data bus utilization in percentage for writes (Ratio)
system.mem_ctrls.dram.pageHitRate               64.83                       # Row buffer hit rate, read and write combined (Ratio)
system.mem_ctrls.dram.power_state.pwrStateResidencyTicks::UNDEFINED   1576477500                       # Cumulative time (in ticks) in various power states (Tick)
system.mem_ctrls.dram.rank0.actEnergy         6254640                       # Energy for activate commands per rank (pJ) (Joule)
system.mem_ctrls.dram.rank0.preEnergy         3309240                       # Energy for precharge commands per rank (pJ) (Joule)
system.mem_ctrls.dram.rank0.readEnergy       17792880                       # Energy for read commands per rank (pJ) (Joule)
system.mem_ctrls.dram.rank0.writeEnergy        334080                       # Energy for write commands per rank (pJ) (Joule)
system.mem_ctrls.dram.rank0.refreshEnergy 124157280.000000                       # Energy for refresh commands per rank (pJ) (Joule)
system.mem_ctrls.dram.rank0.actBackEnergy    190629090                       # Energy for active background per rank (pJ) (Joule)
system.mem_ctrls.dram.rank0.preBackEnergy    444837600                       # Energy for precharge background per rank (pJ) (Joule)
system.mem_ctrls.dram.rank0.actPowerDownEnergy            0                       # Energy for active power-down per rank (pJ) (Joule)
system.mem_ctrls.dram.rank0.prePowerDownEnergy            0                       # Energy for precharge power-down per rank (pJ) (Joule)
system.mem_ctrls.dram.rank0.selfRefreshEnergy            0                       # Energy for self refresh per rank (pJ) (Joule)
system.mem_ctrls.dram.rank0.totalEnergy     787314810                       # Total energy per rank (pJ) (Joule)
system.mem_ctrls.dram.rank0.averagePower   499.413921                       # Core power per rank (mW) (Watt)
system.mem_ctrls.dram.rank0.totalIdleTime            0                       # Total Idle time Per DRAM Rank (Tick)
system.mem_ctrls.dram.rank0.pwrStateTime::IDLE   1154142250                       # Time in different power states (Tick)
system.mem_ctrls.dram.rank0.pwrStateTime::REF     52520000                       # Time in different power states (Tick)
system.mem_ctrls.dram.rank0.pwrStateTime::SREF            0                       # Time in different power states (Tick)
system.mem_ctrls.dram.rank0.pwrStateTime::PRE_PDN            0                       # Time in different power states (Tick)
system.mem_ctrls.dram.rank0.pwrStateTime::ACT    369815250                       # Time in different power states (Tick)
system.mem_ctrls.dram.rank0.pwrStateTime::ACT_PDN            0                       # Time in different power states (Tick)
system.mem_ctrls.dram.rank1.actEnergy         6847260                       # Energy for activate commands per rank (pJ) (Joule)
system.mem_ctrls.dram.rank1.preEnergy         3624225                       # Energy for precharge commands per rank (pJ) (Joule)
system.mem_ctrls.dram.rank1.readEnergy       18199860                       # Energy for read commands per rank (pJ) (Joule)
system.mem_ctrls.dram.rank1.writeEnergy        584640                       # Energy for write commands per rank (pJ) (Joule)
system.mem_ctrls.dram.rank1.refreshEnergy 124157280.000000                       # Energy for refresh commands per rank (pJ) (Joule)
system.mem_ctrls.dram.rank1.actBackEnergy    186285690                       # Energy for active background per rank (pJ) (Joule)
system.mem_ctrls.dram.rank1.preBackEnergy    448495200                       # Energy for precharge background per rank (pJ) (Joule)
system.mem_ctrls.dram.rank1.actPowerDownEnergy            0                       # Energy for active power-down per rank (pJ) (Joule)
system.mem_ctrls.dram.rank1.prePowerDownEnergy            0                       # Energy for precharge power-down per rank (pJ) (Joule)
system.mem_ctrls.dram.rank1.selfRefreshEnergy            0                       # Energy for self refresh per rank (pJ) (Joule)
system.mem_ctrls.dram.rank1.totalEnergy     788194155                       # Total energy per rank (pJ) (Joule)
system.mem_ctrls.dram.rank1.averagePower   499.971712                       # Core power per rank (mW) (Watt)
system.mem_ctrls.dram.rank1.totalIdleTime            0                       # Total Idle time Per DRAM Rank (Tick)
system.mem_ctrls.dram.rank1.pwrStateTime::IDLE   1163681750                       # Time in different power states (Tick)
system.mem_ctrls.dram.rank1.pwrStateTime::REF     52520000                       # Time in different power states (Tick)
system.mem_ctrls.dram.rank1.pwrStateTime::SREF            0                       # Time in different power states (Tick)
system.mem_ctrls.dram.rank1.pwrStateTime::PRE_PDN            0                       # Time in different power states (Tick)
system.mem_ctrls.dram.rank1.pwrStateTime::ACT    360275750                       # Time in different power states (Tick)
system.mem_ctrls.dram.rank1.pwrStateTime::ACT_PDN            0                       # Time in different power states (Tick)
system.mem_ctrls.power_state.pwrStateResidencyTicks::UNDEFINED   1576477500                       # Cumulative time (in ticks) in various power states (Tick)
system.membus.transDist::ReadResp                4360                       # Transaction distribution (Count)
system.membus.transDist::WritebackDirty           201                       # Transaction distribution (Count)
system.membus.transDist::CleanEvict               651                       # Transaction distribution (Count)
system.membus.transDist::ReadExReq                691                       # Transaction distribution (Count)
system.membus.transDist::ReadExResp               691                       # Transaction distribution (Count)
system.membus.transDist::ReadSharedReq           4360                       # Transaction distribution (Count)
system.membus.pktCount_system.l2.mem_side_port::system.mem_ctrls.port        10954                       # Packet count per connected requestor and responder (Count)
system.membus.pktCount_system.l2.mem_side_port::total        10954                       # Packet count per connected requestor and responder (Count)
system.membus.pktCount::total                   10954                       # Packet count per connected requestor and responder (Count)
system.membus.pktSize_system.l2.mem_side_port::system.mem_ctrls.port       336128                       # Cumulative packet size per connected requestor and responder (Byte)
system.membus.pktSize_system.l2.mem_side_port::total       336128                       # Cumulative packet size per connected requestor and responder (Byte)
system.membus.pktSize::total                   336128                       # Cumulative packet size per connected requestor and responder (Byte)
system.membus.snoops                                0                       # Total snoops (Count)
system.membus.snoopTraffic                          0                       # Total snoop traffic (Byte)
system.membus.snoopFanout::samples               5051                       # Request fanout histogram (Count)
system.membus.snoopFanout::mean                     0                       # Request fanout histogram (Count)
system.membus.snoopFanout::stdev                    0                       # Request fanout histogram (Count)
system.membus.snoopFanout::underflows               0      0.00%      0.00% # Request fanout histogram (Count)
system.membus.snoopFanout::0                     5051    100.00%    100.00% # Request fanout histogram (Count)
system.membus.snoopFanout::1                        0      0.00%    100.00% # Request fanout histogram (Count)
system.membus.snoopFanout::overflows                0      0.00%    100.00% # Request fanout histogram (Count)
system.membus.snoopFanout::min_value                0                       # Request fanout histogram (Count)
system.membus.snoopFanout::max_value                0                       # Request fanout histogram (Count)
system.membus.snoopFanout::total                 5051                       # Request fanout histogram (Count)
system.membus.power_state.pwrStateResidencyTicks::UNDEFINED   1576477500                       # Cumulative time (in ticks) in various power states (Tick)
system.membus.reqLayer4.occupancy             6768500                       # Layer occupancy (ticks) (Tick)
system.membus.reqLayer4.utilization               0.0                       # Layer utilization (Ratio)
system.membus.respLayer1.occupancy           26948250                       # Layer occupancy (ticks) (Tick)
system.membus.respLayer1.utilization              0.0                       # Layer utilization (Ratio)
system.membus.snoop_filter.totRequests           5903                       # Total number of requests made to the snoop filter. (Count)
system.membus.snoop_filter.hitSingleRequests          852                       # Number of requests hitting in the snoop filter with a single holder of the requested data. (Count)
system.membus.snoop_filter.hitMultiRequests            0                       # Number of requests hitting in the snoop filter with multiple (>1) holders of the requested data. (Count)
system.membus.snoop_filter.totSnoops                0                       # Total number of snoops made to the snoop filter. (Count)
system.membus.snoop_filter.hitSingleSnoops            0                       # Number of snoops hitting in the snoop filter with a single holder of the requested data. (Count)
system.membus.snoop_filter.hitMultiSnoops            0                       # Number of snoops hitting in the snoop filter with multiple (>1) holders of the requested data. (Count)
system.tol2bus.transDist::ReadResp               5006                       # Transaction distribution (Count)
system.tol2bus.transDist::WritebackDirty         1235                       # Transaction distribution (Count)
system.tol2bus.transDist::WritebackClean         1534                       # Transaction distribution (Count)
system.tol2bus.transDist::CleanEvict             2550                       # Transaction distribution (Count)
system.tol2bus.transDist::ReadExReq               758                       # Transaction distribution (Count)
system.tol2bus.transDist::ReadExResp              758                       # Transaction distribution (Count)
system.tol2bus.transDist::ReadCleanReq           2534                       # Transaction distribution (Count)
system.tol2bus.transDist::ReadSharedReq          2472                       # Transaction distribution (Count)
system.tol2bus.pktCount_system.cpu0.icache.mem_side_port::system.l2.cpu_side_port         3294                       # Packet count per connected requestor and responder (Count)
system.tol2bus.pktCount_system.cpu0.dcache.mem_side_port::system.l2.cpu_side_port         4344                       # Packet count per connected requestor and responder (Count)
system.tol2bus.pktCount_system.cpu1.icache.mem_side_port::system.l2.cpu_side_port         3308                       # Packet count per connected requestor and responder (Count)
system.tol2bus.pktCount_system.cpu1.dcache.mem_side_port::system.l2.cpu_side_port         4330                       # Packet count per connected requestor and responder (Count)
system.tol2bus.pktCount::total                  15276                       # Packet count per connected requestor and responder (Count)
system.tol2bus.pktSize_system.cpu0.icache.mem_side_port::system.l2.cpu_side_port       129856                       # Cumulative packet size per connected requestor and responder (Byte)
system.tol2bus.pktSize_system.cpu0.dcache.mem_side_port::system.l2.cpu_side_port       136576                       # Cumulative packet size per connected requestor and responder (Byte)
system.tol2bus.pktSize_system.cpu1.icache.mem_side_port::system.l2.cpu_side_port       130496                       # Cumulative packet size per connected requestor and responder (Byte)
system.tol2bus.pktSize_system.cpu1.dcache.mem_side_port::system.l2.cpu_side_port       136320                       # Cumulative packet size per connected requestor and responder (Byte)
system.tol2bus.pktSize::total                  533248                       # Cumulative packet size per connected requestor and responder (Byte)
system.tol2bus.snoops                            1571                       # Total snoops (Count)
system.tol2bus.snoopTraffic                     12864                       # Total snoop traffic (Byte)
system.tol2bus.snoopFanout::samples              7335                       # Request fanout histogram (Count)
system.tol2bus.snoopFanout::mean             0.104022                       # Request fanout histogram (Count)
system.tol2bus.snoopFanout::stdev            0.305310                       # Request fanout histogram (Count)
system.tol2bus.snoopFanout::underflows              0      0.00%      0.00% # Request fanout histogram (Count)
system.tol2bus.snoopFanout::0                    6572     89.60%     89.60% # Request fanout histogram (Count)
system.tol2bus.snoopFanout::1                     763     10.40%    100.00% # Request fanout histogram (Count)
system.tol2bus.snoopFanout::2                       0      0.00%    100.00% # Request fanout histogram (Count)
system.tol2bus.snoopFanout::3                       0      0.00%    100.00% # Request fanout histogram (Count)
system.tol2bus.snoopFanout::4                       0      0.00%    100.00% # Request fanout histogram (Count)
system.tol2bus.snoopFanout::5                       0      0.00%    100.00% # Request fanout histogram (Count)
system.tol2bus.snoopFanout::6                       0      0.00%    100.00% # Request fanout histogram (Count)
system.tol2bus.snoopFanout::7                       0      0.00%    100.00% # Request fanout histogram (Count)
system.tol2bus.snoopFanout::8                       0      0.00%    100.00% # Request fanout histogram (Count)
system.tol2bus.snoopFanout::overflows               0      0.00%    100.00% # Request fanout histogram (Count)
system.tol2bus.snoopFanout::min_value               0                       # Request fanout histogram (Count)
system.tol2bus.snoopFanout::max_value               1                       # Request fanout histogram (Count)
system.tol2bus.snoopFanout::total                7335                       # Request fanout histogram (Count)
system.tol2bus.power_state.pwrStateResidencyTicks::UNDEFINED   1576477500                       # Cumulative time (in ticks) in various power states (Tick)
system.tol2bus.reqLayer0.occupancy            7324000                       # Layer occupancy (ticks) (Tick)
system.tol2bus.reqLayer0.utilization              0.0                       # Layer utilization (Ratio)
system.tol2bus.respLayer0.occupancy           1898498                       # Layer occupancy (ticks) (Tick)
system.tol2bus.respLayer0.utilization             0.0                       # Layer utilization (Ratio)
system.tol2bus.respLayer1.occupancy           2425500                       # Layer occupancy (ticks) (Tick)
system.tol2bus.respLayer1.utilization             0.0                       # Layer utilization (Ratio)
system.tol2bus.respLayer4.occupancy           1903500                       # Layer occupancy (ticks) (Tick)
system.tol2bus.respLayer4.utilization             0.0                       # Layer utilization (Ratio)
system.tol2bus.respLayer5.occupancy           2419500                       # Layer occupancy (ticks) (Tick)
system.tol2bus.respLayer5.utilization             0.0                       # Layer utilization (Ratio)
system.tol2bus.snoop_filter.totRequests          9512                       # Total number of requests made to the snoop filter. (Count)
system.tol2bus.snoop_filter.hitSingleRequests         3748                       # Number of requests hitting in the snoop filter with a single holder of the requested data. (Count)
system.tol2bus.snoop_filter.hitMultiRequests            0                       # Number of requests hitting in the snoop filter with multiple (>1) holders of the requested data. (Count)
system.tol2bus.snoop_filter.totSnoops             763                       # Total number of snoops made to the snoop filter. (Count)
system.tol2bus.snoop_filter.hitSingleSnoops          763                       # Number of snoops hitting in the snoop filter with a single holder of the requested data. (Count)
system.tol2bus.snoop_filter.hitMultiSnoops            0                       # Number of snoops hitting in the snoop filter with multiple (>1) holders of the requested data. (Count)
system.voltage_domain.voltage                       1                       # Voltage in Volts (Volt)
system.workload.inst.arm                            0                       # number of arm instructions executed (Count)
system.workload.inst.quiesce                        0                       # number of quiesce instructions executed (Count)

---------- End Simulation Statistics   ----------
