
---------- Begin Simulation Statistics ----------
simSeconds                                   0.128809                       # Number of seconds simulated (Second)
simTicks                                 128808508500                       # Number of ticks simulated (Tick)
finalTick                                128808508500                       # Number of ticks from beginning of simulation (restored from checkpoints and never reset) (Tick)
simFreq                                  1000000000000                       # The number of ticks per simulated second ((Tick/Second))
hostSeconds                                    149.94                       # Real time elapsed on the host (Second)
hostTickRate                                859057711                       # The number of ticks simulated per host second (ticks/s) ((Tick/Second))
hostMemory                                    8554868                       # Number of bytes of host memory used (Byte)
simInsts                                    114264018                       # Number of instructions simulated (Count)
simOps                                      211763712                       # Number of ops (including micro ops) simulated (Count)
hostInstRate                                   762056                       # Simulator instruction rate (inst/s) ((Count/Second))
hostOpRate                                    1412307                       # Simulator op (including micro ops) rate (op/s) ((Count/Second))
system.clk_domain.clock                          1000                       # Clock period in ticks (Tick)
system.cpu0.numCycles                       239362253                       # Number of cpu cycles simulated (Cycle)
system.cpu0.cpi                              4.189626                       # CPI: cycles per instruction (core level) ((Cycle/Count))
system.cpu0.ipc                              0.238685                       # IPC: instructions per cycle (core level) ((Count/Cycle))
system.cpu0.numWorkItemsStarted                     0                       # Number of work items this cpu started (Count)
system.cpu0.numWorkItemsCompleted                   0                       # Number of work items this cpu completed (Count)
system.cpu0.commitStats0.numInsts            57132124                       # Number of instructions committed (thread level) (Count)
system.cpu0.commitStats0.numOps             105882012                       # Number of ops (including micro ops) committed (thread level) (Count)
system.cpu0.commitStats0.numInstsNotNOP             0                       # Number of instructions committed excluding NOPs or prefetches (Count)
system.cpu0.commitStats0.numOpsNotNOP               0                       # Number of Ops (including micro ops) Simulated (Count)
system.cpu0.commitStats0.cpi                 4.189626                       # CPI: cycles per instruction (thread level) ((Cycle/Count))
system.cpu0.commitStats0.ipc                 0.238685                       # IPC: instructions per cycle (thread level) ((Count/Cycle))
system.cpu0.commitStats0.numMemRefs                 0                       # Number of memory references committed (Count)
system.cpu0.commitStats0.numFpInsts          48623271                       # Number of float instructions (Count)
system.cpu0.commitStats0.numIntInsts         73438799                       # Number of integer instructions (Count)
system.cpu0.commitStats0.numLoadInsts        16023989                       # Number of load instructions (Count)
system.cpu0.commitStats0.numStoreInsts         153969                       # Number of store instructions (Count)
system.cpu0.commitStats0.numVecInsts                0                       # Number of vector instructions (Count)
system.cpu0.commitStats0.committedInstType::No_OpClass        41039      0.04%      0.04% # Class of committed instruction. (Count)
system.cpu0.commitStats0.committedInstType::IntAlu     57179644     54.00%     54.04% # Class of committed instruction. (Count)
system.cpu0.commitStats0.committedInstType::IntMult          113      0.00%     54.04% # Class of committed instruction. (Count)
system.cpu0.commitStats0.committedInstType::IntDiv         1652      0.00%     54.04% # Class of committed instruction. (Count)
system.cpu0.commitStats0.committedInstType::FloatAdd     16000223     15.11%     69.15% # Class of committed instruction. (Count)
system.cpu0.commitStats0.committedInstType::FloatCmp            0      0.00%     69.15% # Class of committed instruction. (Count)
system.cpu0.commitStats0.committedInstType::FloatCvt            0      0.00%     69.15% # Class of committed instruction. (Count)
system.cpu0.commitStats0.committedInstType::FloatMult            0      0.00%     69.15% # Class of committed instruction. (Count)
system.cpu0.commitStats0.committedInstType::FloatMultAcc            0      0.00%     69.15% # Class of committed instruction. (Count)
system.cpu0.commitStats0.committedInstType::FloatDiv            0      0.00%     69.15% # Class of committed instruction. (Count)
system.cpu0.commitStats0.committedInstType::FloatMisc            0      0.00%     69.15% # Class of committed instruction. (Count)
system.cpu0.commitStats0.committedInstType::FloatSqrt            0      0.00%     69.15% # Class of committed instruction. (Count)
system.cpu0.commitStats0.committedInstType::SimdAdd           10      0.00%     69.15% # Class of committed instruction. (Count)
system.cpu0.commitStats0.committedInstType::SimdAddAcc            0      0.00%     69.15% # Class of committed instruction. (Count)
system.cpu0.commitStats0.committedInstType::SimdAlu       240423      0.23%     69.38% # Class of committed instruction. (Count)
system.cpu0.commitStats0.committedInstType::SimdCmp            2      0.00%     69.38% # Class of committed instruction. (Count)
system.cpu0.commitStats0.committedInstType::SimdCvt          324      0.00%     69.38% # Class of committed instruction. (Count)
system.cpu0.commitStats0.committedInstType::SimdMisc        80618      0.08%     69.46% # Class of committed instruction. (Count)
system.cpu0.commitStats0.committedInstType::SimdMult            0      0.00%     69.46% # Class of committed instruction. (Count)
system.cpu0.commitStats0.committedInstType::SimdMultAcc            0      0.00%     69.46% # Class of committed instruction. (Count)
system.cpu0.commitStats0.committedInstType::SimdMatMultAcc            0      0.00%     69.46% # Class of committed instruction. (Count)
system.cpu0.commitStats0.committedInstType::SimdShift            3      0.00%     69.46% # Class of committed instruction. (Count)
system.cpu0.commitStats0.committedInstType::SimdShiftAcc            0      0.00%     69.46% # Class of committed instruction. (Count)
system.cpu0.commitStats0.committedInstType::SimdDiv            0      0.00%     69.46% # Class of committed instruction. (Count)
system.cpu0.commitStats0.committedInstType::SimdSqrt            0      0.00%     69.46% # Class of committed instruction. (Count)
system.cpu0.commitStats0.committedInstType::SimdFloatAdd      8000000      7.56%     77.01% # Class of committed instruction. (Count)
system.cpu0.commitStats0.committedInstType::SimdFloatAlu            0      0.00%     77.01% # Class of committed instruction. (Count)
system.cpu0.commitStats0.committedInstType::SimdFloatCmp            0      0.00%     77.01% # Class of committed instruction. (Count)
system.cpu0.commitStats0.committedInstType::SimdFloatCvt        80003      0.08%     77.09% # Class of committed instruction. (Count)
system.cpu0.commitStats0.committedInstType::SimdFloatDiv            0      0.00%     77.09% # Class of committed instruction. (Count)
system.cpu0.commitStats0.committedInstType::SimdFloatMisc            0      0.00%     77.09% # Class of committed instruction. (Count)
system.cpu0.commitStats0.committedInstType::SimdFloatMult      8080000      7.63%     84.72% # Class of committed instruction. (Count)
system.cpu0.commitStats0.committedInstType::SimdFloatMultAcc            0      0.00%     84.72% # Class of committed instruction. (Count)
system.cpu0.commitStats0.committedInstType::SimdFloatMatMultAcc            0      0.00%     84.72% # Class of committed instruction. (Count)
system.cpu0.commitStats0.committedInstType::SimdFloatSqrt            0      0.00%     84.72% # Class of committed instruction. (Count)
system.cpu0.commitStats0.committedInstType::SimdReduceAdd            0      0.00%     84.72% # Class of committed instruction. (Count)
system.cpu0.commitStats0.committedInstType::SimdReduceAlu            0      0.00%     84.72% # Class of committed instruction. (Count)
system.cpu0.commitStats0.committedInstType::SimdReduceCmp            0      0.00%     84.72% # Class of committed instruction. (Count)
system.cpu0.commitStats0.committedInstType::SimdFloatReduceAdd            0      0.00%     84.72% # Class of committed instruction. (Count)
system.cpu0.commitStats0.committedInstType::SimdFloatReduceCmp            0      0.00%     84.72% # Class of committed instruction. (Count)
system.cpu0.commitStats0.committedInstType::SimdAes            0      0.00%     84.72% # Class of committed instruction. (Count)
system.cpu0.commitStats0.committedInstType::SimdAesMix            0      0.00%     84.72% # Class of committed instruction. (Count)
system.cpu0.commitStats0.committedInstType::SimdSha1Hash            0      0.00%     84.72% # Class of committed instruction. (Count)
system.cpu0.commitStats0.committedInstType::SimdSha1Hash2            0      0.00%     84.72% # Class of committed instruction. (Count)
system.cpu0.commitStats0.committedInstType::SimdSha256Hash            0      0.00%     84.72% # Class of committed instruction. (Count)
system.cpu0.commitStats0.committedInstType::SimdSha256Hash2            0      0.00%     84.72% # Class of committed instruction. (Count)
system.cpu0.commitStats0.committedInstType::SimdShaSigma2            0      0.00%     84.72% # Class of committed instruction. (Count)
system.cpu0.commitStats0.committedInstType::SimdShaSigma3            0      0.00%     84.72% # Class of committed instruction. (Count)
system.cpu0.commitStats0.committedInstType::SimdPredAlu            0      0.00%     84.72% # Class of committed instruction. (Count)
system.cpu0.commitStats0.committedInstType::Matrix            0      0.00%     84.72% # Class of committed instruction. (Count)
system.cpu0.commitStats0.committedInstType::MatrixMov            0      0.00%     84.72% # Class of committed instruction. (Count)
system.cpu0.commitStats0.committedInstType::MatrixOP            0      0.00%     84.72% # Class of committed instruction. (Count)
system.cpu0.commitStats0.committedInstType::MemRead        23588      0.02%     84.74% # Class of committed instruction. (Count)
system.cpu0.commitStats0.committedInstType::MemWrite        13058      0.01%     84.76% # Class of committed instruction. (Count)
system.cpu0.commitStats0.committedInstType::FloatMemRead     16000401     15.11%     99.87% # Class of committed instruction. (Count)
system.cpu0.commitStats0.committedInstType::FloatMemWrite       140911      0.13%    100.00% # Class of committed instruction. (Count)
system.cpu0.commitStats0.committedInstType::IprAccess            0      0.00%    100.00% # Class of committed instruction. (Count)
system.cpu0.commitStats0.committedInstType::InstPrefetch            0      0.00%    100.00% # Class of committed instruction. (Count)
system.cpu0.commitStats0.committedInstType::VectorUnitStrideLoad            0      0.00%    100.00% # Class of committed instruction. (Count)
system.cpu0.commitStats0.committedInstType::VectorUnitStrideStore            0      0.00%    100.00% # Class of committed instruction. (Count)
system.cpu0.commitStats0.committedInstType::VectorUnitStrideMaskLoad            0      0.00%    100.00% # Class of committed instruction. (Count)
system.cpu0.commitStats0.committedInstType::VectorUnitStrideMaskStore            0      0.00%    100.00% # Class of committed instruction. (Count)
system.cpu0.commitStats0.committedInstType::VectorStridedLoad            0      0.00%    100.00% # Class of committed instruction. (Count)
system.cpu0.commitStats0.committedInstType::VectorStridedStore            0      0.00%    100.00% # Class of committed instruction. (Count)
system.cpu0.commitStats0.committedInstType::VectorIndexedLoad            0      0.00%    100.00% # Class of committed instruction. (Count)
system.cpu0.commitStats0.committedInstType::VectorIndexedStore            0      0.00%    100.00% # Class of committed instruction. (Count)
system.cpu0.commitStats0.committedInstType::VectorUnitStrideFaultOnlyFirstLoad            0      0.00%    100.00% # Class of committed instruction. (Count)
system.cpu0.commitStats0.committedInstType::VectorWholeRegisterLoad            0      0.00%    100.00% # Class of committed instruction. (Count)
system.cpu0.commitStats0.committedInstType::VectorWholeRegisterStore            0      0.00%    100.00% # Class of committed instruction. (Count)
system.cpu0.commitStats0.committedInstType::VectorIntegerArith            0      0.00%    100.00% # Class of committed instruction. (Count)
system.cpu0.commitStats0.committedInstType::VectorFloatArith            0      0.00%    100.00% # Class of committed instruction. (Count)
system.cpu0.commitStats0.committedInstType::VectorFloatConvert            0      0.00%    100.00% # Class of committed instruction. (Count)
system.cpu0.commitStats0.committedInstType::VectorIntegerReduce            0      0.00%    100.00% # Class of committed instruction. (Count)
system.cpu0.commitStats0.committedInstType::VectorFloatReduce            0      0.00%    100.00% # Class of committed instruction. (Count)
system.cpu0.commitStats0.committedInstType::VectorMisc            0      0.00%    100.00% # Class of committed instruction. (Count)
system.cpu0.commitStats0.committedInstType::VectorIntegerExtension            0      0.00%    100.00% # Class of committed instruction. (Count)
system.cpu0.commitStats0.committedInstType::VectorConfig            0      0.00%    100.00% # Class of committed instruction. (Count)
system.cpu0.commitStats0.committedInstType::total    105882012                       # Class of committed instruction. (Count)
system.cpu0.commitStats0.committedControl::IsControl      8120739                       # Class of control type instructions committed (Count)
system.cpu0.commitStats0.committedControl::IsDirectControl      8115562                       # Class of control type instructions committed (Count)
system.cpu0.commitStats0.committedControl::IsIndirectControl         5177                       # Class of control type instructions committed (Count)
system.cpu0.commitStats0.committedControl::IsCondControl      8109123                       # Class of control type instructions committed (Count)
system.cpu0.commitStats0.committedControl::IsUncondControl        11616                       # Class of control type instructions committed (Count)
system.cpu0.commitStats0.committedControl::IsCall         2771                       # Class of control type instructions committed (Count)
system.cpu0.commitStats0.committedControl::IsReturn         2766                       # Class of control type instructions committed (Count)
system.cpu0.dcache.demandHits::cpu0.data     16053993                       # number of demand (read+write) hits (Count)
system.cpu0.dcache.demandHits::total         16053993                       # number of demand (read+write) hits (Count)
system.cpu0.dcache.overallHits::cpu0.data     16053993                       # number of overall hits (Count)
system.cpu0.dcache.overallHits::total        16053993                       # number of overall hits (Count)
system.cpu0.dcache.demandMisses::cpu0.data       623766                       # number of demand (read+write) misses (Count)
system.cpu0.dcache.demandMisses::total         623766                       # number of demand (read+write) misses (Count)
system.cpu0.dcache.overallMisses::cpu0.data       623766                       # number of overall misses (Count)
system.cpu0.dcache.overallMisses::total        623766                       # number of overall misses (Count)
system.cpu0.dcache.demandMissLatency::cpu0.data  38679722500                       # number of demand (read+write) miss ticks (Tick)
system.cpu0.dcache.demandMissLatency::total  38679722500                       # number of demand (read+write) miss ticks (Tick)
system.cpu0.dcache.overallMissLatency::cpu0.data  38679722500                       # number of overall miss ticks (Tick)
system.cpu0.dcache.overallMissLatency::total  38679722500                       # number of overall miss ticks (Tick)
system.cpu0.dcache.demandAccesses::cpu0.data     16677759                       # number of demand (read+write) accesses (Count)
system.cpu0.dcache.demandAccesses::total     16677759                       # number of demand (read+write) accesses (Count)
system.cpu0.dcache.overallAccesses::cpu0.data     16677759                       # number of overall (read+write) accesses (Count)
system.cpu0.dcache.overallAccesses::total     16677759                       # number of overall (read+write) accesses (Count)
system.cpu0.dcache.demandMissRate::cpu0.data     0.037401                       # miss rate for demand accesses (Ratio)
system.cpu0.dcache.demandMissRate::total     0.037401                       # miss rate for demand accesses (Ratio)
system.cpu0.dcache.overallMissRate::cpu0.data     0.037401                       # miss rate for overall accesses (Ratio)
system.cpu0.dcache.overallMissRate::total     0.037401                       # miss rate for overall accesses (Ratio)
system.cpu0.dcache.demandAvgMissLatency::cpu0.data 62009.988521                       # average overall miss latency in ticks ((Tick/Count))
system.cpu0.dcache.demandAvgMissLatency::total 62009.988521                       # average overall miss latency in ticks ((Tick/Count))
system.cpu0.dcache.overallAvgMissLatency::cpu0.data 62009.988521                       # average overall miss latency ((Tick/Count))
system.cpu0.dcache.overallAvgMissLatency::total 62009.988521                       # average overall miss latency ((Tick/Count))
system.cpu0.dcache.blockedCycles::no_mshrs            0                       # number of cycles access was blocked (Cycle)
system.cpu0.dcache.blockedCycles::no_targets            0                       # number of cycles access was blocked (Cycle)
system.cpu0.dcache.blockedCauses::no_mshrs            0                       # number of times access was blocked (Count)
system.cpu0.dcache.blockedCauses::no_targets            0                       # number of times access was blocked (Count)
system.cpu0.dcache.avgBlocked::no_mshrs           nan                       # average number of cycles each access was blocked ((Cycle/Count))
system.cpu0.dcache.avgBlocked::no_targets          nan                       # average number of cycles each access was blocked ((Cycle/Count))
system.cpu0.dcache.writebacks::writebacks        21824                       # number of writebacks (Count)
system.cpu0.dcache.writebacks::total            21824                       # number of writebacks (Count)
system.cpu0.dcache.demandMshrMisses::cpu0.data       623766                       # number of demand (read+write) MSHR misses (Count)
system.cpu0.dcache.demandMshrMisses::total       623766                       # number of demand (read+write) MSHR misses (Count)
system.cpu0.dcache.overallMshrMisses::cpu0.data       623766                       # number of overall MSHR misses (Count)
system.cpu0.dcache.overallMshrMisses::total       623766                       # number of overall MSHR misses (Count)
system.cpu0.dcache.demandMshrMissLatency::cpu0.data  38055956500                       # number of demand (read+write) MSHR miss ticks (Tick)
system.cpu0.dcache.demandMshrMissLatency::total  38055956500                       # number of demand (read+write) MSHR miss ticks (Tick)
system.cpu0.dcache.overallMshrMissLatency::cpu0.data  38055956500                       # number of overall MSHR miss ticks (Tick)
system.cpu0.dcache.overallMshrMissLatency::total  38055956500                       # number of overall MSHR miss ticks (Tick)
system.cpu0.dcache.demandMshrMissRate::cpu0.data     0.037401                       # mshr miss ratio for demand accesses (Ratio)
system.cpu0.dcache.demandMshrMissRate::total     0.037401                       # mshr miss ratio for demand accesses (Ratio)
system.cpu0.dcache.overallMshrMissRate::cpu0.data     0.037401                       # mshr miss ratio for overall accesses (Ratio)
system.cpu0.dcache.overallMshrMissRate::total     0.037401                       # mshr miss ratio for overall accesses (Ratio)
system.cpu0.dcache.demandAvgMshrMissLatency::cpu0.data 61009.988521                       # average overall mshr miss latency ((Tick/Count))
system.cpu0.dcache.demandAvgMshrMissLatency::total 61009.988521                       # average overall mshr miss latency ((Tick/Count))
system.cpu0.dcache.overallAvgMshrMissLatency::cpu0.data 61009.988521                       # average overall mshr miss latency ((Tick/Count))
system.cpu0.dcache.overallAvgMshrMissLatency::total 61009.988521                       # average overall mshr miss latency ((Tick/Count))
system.cpu0.dcache.replacements                623257                       # number of replacements (Count)
system.cpu0.dcache.LockedRMWReadReq.hits::cpu0.data           39                       # number of LockedRMWReadReq hits (Count)
system.cpu0.dcache.LockedRMWReadReq.hits::total           39                       # number of LockedRMWReadReq hits (Count)
system.cpu0.dcache.LockedRMWReadReq.misses::cpu0.data            3                       # number of LockedRMWReadReq misses (Count)
system.cpu0.dcache.LockedRMWReadReq.misses::total            3                       # number of LockedRMWReadReq misses (Count)
system.cpu0.dcache.LockedRMWReadReq.missLatency::cpu0.data       300000                       # number of LockedRMWReadReq miss ticks (Tick)
system.cpu0.dcache.LockedRMWReadReq.missLatency::total       300000                       # number of LockedRMWReadReq miss ticks (Tick)
system.cpu0.dcache.LockedRMWReadReq.accesses::cpu0.data           42                       # number of LockedRMWReadReq accesses(hits+misses) (Count)
system.cpu0.dcache.LockedRMWReadReq.accesses::total           42                       # number of LockedRMWReadReq accesses(hits+misses) (Count)
system.cpu0.dcache.LockedRMWReadReq.missRate::cpu0.data     0.071429                       # miss rate for LockedRMWReadReq accesses (Ratio)
system.cpu0.dcache.LockedRMWReadReq.missRate::total     0.071429                       # miss rate for LockedRMWReadReq accesses (Ratio)
system.cpu0.dcache.LockedRMWReadReq.avgMissLatency::cpu0.data       100000                       # average LockedRMWReadReq miss latency ((Tick/Count))
system.cpu0.dcache.LockedRMWReadReq.avgMissLatency::total       100000                       # average LockedRMWReadReq miss latency ((Tick/Count))
system.cpu0.dcache.LockedRMWReadReq.mshrMisses::cpu0.data            3                       # number of LockedRMWReadReq MSHR misses (Count)
system.cpu0.dcache.LockedRMWReadReq.mshrMisses::total            3                       # number of LockedRMWReadReq MSHR misses (Count)
system.cpu0.dcache.LockedRMWReadReq.mshrMissLatency::cpu0.data       636000                       # number of LockedRMWReadReq MSHR miss ticks (Tick)
system.cpu0.dcache.LockedRMWReadReq.mshrMissLatency::total       636000                       # number of LockedRMWReadReq MSHR miss ticks (Tick)
system.cpu0.dcache.LockedRMWReadReq.mshrMissRate::cpu0.data     0.071429                       # mshr miss rate for LockedRMWReadReq accesses (Ratio)
system.cpu0.dcache.LockedRMWReadReq.mshrMissRate::total     0.071429                       # mshr miss rate for LockedRMWReadReq accesses (Ratio)
system.cpu0.dcache.LockedRMWReadReq.avgMshrMissLatency::cpu0.data       212000                       # average LockedRMWReadReq mshr miss latency ((Tick/Count))
system.cpu0.dcache.LockedRMWReadReq.avgMshrMissLatency::total       212000                       # average LockedRMWReadReq mshr miss latency ((Tick/Count))
system.cpu0.dcache.LockedRMWWriteReq.hits::cpu0.data           42                       # number of LockedRMWWriteReq hits (Count)
system.cpu0.dcache.LockedRMWWriteReq.hits::total           42                       # number of LockedRMWWriteReq hits (Count)
system.cpu0.dcache.LockedRMWWriteReq.accesses::cpu0.data           42                       # number of LockedRMWWriteReq accesses(hits+misses) (Count)
system.cpu0.dcache.LockedRMWWriteReq.accesses::total           42                       # number of LockedRMWWriteReq accesses(hits+misses) (Count)
system.cpu0.dcache.ReadReq.hits::cpu0.data     15921972                       # number of ReadReq hits (Count)
system.cpu0.dcache.ReadReq.hits::total       15921972                       # number of ReadReq hits (Count)
system.cpu0.dcache.ReadReq.misses::cpu0.data       601978                       # number of ReadReq misses (Count)
system.cpu0.dcache.ReadReq.misses::total       601978                       # number of ReadReq misses (Count)
system.cpu0.dcache.ReadReq.missLatency::cpu0.data  37623531500                       # number of ReadReq miss ticks (Tick)
system.cpu0.dcache.ReadReq.missLatency::total  37623531500                       # number of ReadReq miss ticks (Tick)
system.cpu0.dcache.ReadReq.accesses::cpu0.data     16523950                       # number of ReadReq accesses(hits+misses) (Count)
system.cpu0.dcache.ReadReq.accesses::total     16523950                       # number of ReadReq accesses(hits+misses) (Count)
system.cpu0.dcache.ReadReq.missRate::cpu0.data     0.036431                       # miss rate for ReadReq accesses (Ratio)
system.cpu0.dcache.ReadReq.missRate::total     0.036431                       # miss rate for ReadReq accesses (Ratio)
system.cpu0.dcache.ReadReq.avgMissLatency::cpu0.data 62499.844679                       # average ReadReq miss latency ((Tick/Count))
system.cpu0.dcache.ReadReq.avgMissLatency::total 62499.844679                       # average ReadReq miss latency ((Tick/Count))
system.cpu0.dcache.ReadReq.mshrMisses::cpu0.data       601978                       # number of ReadReq MSHR misses (Count)
system.cpu0.dcache.ReadReq.mshrMisses::total       601978                       # number of ReadReq MSHR misses (Count)
system.cpu0.dcache.ReadReq.mshrMissLatency::cpu0.data  37021553500                       # number of ReadReq MSHR miss ticks (Tick)
system.cpu0.dcache.ReadReq.mshrMissLatency::total  37021553500                       # number of ReadReq MSHR miss ticks (Tick)
system.cpu0.dcache.ReadReq.mshrMissRate::cpu0.data     0.036431                       # mshr miss rate for ReadReq accesses (Ratio)
system.cpu0.dcache.ReadReq.mshrMissRate::total     0.036431                       # mshr miss rate for ReadReq accesses (Ratio)
system.cpu0.dcache.ReadReq.avgMshrMissLatency::cpu0.data 61499.844679                       # average ReadReq mshr miss latency ((Tick/Count))
system.cpu0.dcache.ReadReq.avgMshrMissLatency::total 61499.844679                       # average ReadReq mshr miss latency ((Tick/Count))
system.cpu0.dcache.WriteReq.hits::cpu0.data       132021                       # number of WriteReq hits (Count)
system.cpu0.dcache.WriteReq.hits::total        132021                       # number of WriteReq hits (Count)
system.cpu0.dcache.WriteReq.misses::cpu0.data        21788                       # number of WriteReq misses (Count)
system.cpu0.dcache.WriteReq.misses::total        21788                       # number of WriteReq misses (Count)
system.cpu0.dcache.WriteReq.missLatency::cpu0.data   1056191000                       # number of WriteReq miss ticks (Tick)
system.cpu0.dcache.WriteReq.missLatency::total   1056191000                       # number of WriteReq miss ticks (Tick)
system.cpu0.dcache.WriteReq.accesses::cpu0.data       153809                       # number of WriteReq accesses(hits+misses) (Count)
system.cpu0.dcache.WriteReq.accesses::total       153809                       # number of WriteReq accesses(hits+misses) (Count)
system.cpu0.dcache.WriteReq.missRate::cpu0.data     0.141656                       # miss rate for WriteReq accesses (Ratio)
system.cpu0.dcache.WriteReq.missRate::total     0.141656                       # miss rate for WriteReq accesses (Ratio)
system.cpu0.dcache.WriteReq.avgMissLatency::cpu0.data 48475.812374                       # average WriteReq miss latency ((Tick/Count))
system.cpu0.dcache.WriteReq.avgMissLatency::total 48475.812374                       # average WriteReq miss latency ((Tick/Count))
system.cpu0.dcache.WriteReq.mshrMisses::cpu0.data        21788                       # number of WriteReq MSHR misses (Count)
system.cpu0.dcache.WriteReq.mshrMisses::total        21788                       # number of WriteReq MSHR misses (Count)
system.cpu0.dcache.WriteReq.mshrMissLatency::cpu0.data   1034403000                       # number of WriteReq MSHR miss ticks (Tick)
system.cpu0.dcache.WriteReq.mshrMissLatency::total   1034403000                       # number of WriteReq MSHR miss ticks (Tick)
system.cpu0.dcache.WriteReq.mshrMissRate::cpu0.data     0.141656                       # mshr miss rate for WriteReq accesses (Ratio)
system.cpu0.dcache.WriteReq.mshrMissRate::total     0.141656                       # mshr miss rate for WriteReq accesses (Ratio)
system.cpu0.dcache.WriteReq.avgMshrMissLatency::cpu0.data 47475.812374                       # average WriteReq mshr miss latency ((Tick/Count))
system.cpu0.dcache.WriteReq.avgMshrMissLatency::total 47475.812374                       # average WriteReq mshr miss latency ((Tick/Count))
system.cpu0.dcache.power_state.pwrStateResidencyTicks::UNDEFINED 128808508500                       # Cumulative time (in ticks) in various power states (Tick)
system.cpu0.dcache.tags.tagsInUse          511.628956                       # Average ticks per tags in use ((Tick/Count))
system.cpu0.dcache.tags.totalRefs            16677843                       # Total number of references to valid blocks. (Count)
system.cpu0.dcache.tags.sampledRefs            623769                       # Sample count of references to valid blocks. (Count)
system.cpu0.dcache.tags.avgRefs             26.737210                       # Average number of references to valid blocks. ((Count/Count))
system.cpu0.dcache.tags.warmupTick             177500                       # The tick when the warmup percentage was hit. (Tick)
system.cpu0.dcache.tags.occupancies::cpu0.data   511.628956                       # Average occupied blocks per tick, per requestor ((Count/Tick))
system.cpu0.dcache.tags.avgOccs::cpu0.data     0.999275                       # Average percentage of cache occupancy ((Ratio/Tick))
system.cpu0.dcache.tags.avgOccs::total       0.999275                       # Average percentage of cache occupancy ((Ratio/Tick))
system.cpu0.dcache.tags.occupanciesTaskId::1024          512                       # Occupied blocks per task id (Count)
system.cpu0.dcache.tags.ageTaskId_1024::3          392                       # Occupied blocks per task id, per block age (Count)
system.cpu0.dcache.tags.ageTaskId_1024::4          120                       # Occupied blocks per task id, per block age (Count)
system.cpu0.dcache.tags.ratioOccsTaskId::1024            1                       # Ratio of occupied blocks and all blocks, per task id (Ratio)
system.cpu0.dcache.tags.tagAccesses          33979455                       # Number of tag accesses (Count)
system.cpu0.dcache.tags.dataAccesses         33979455                       # Number of data accesses (Count)
system.cpu0.dcache.tags.power_state.pwrStateResidencyTicks::UNDEFINED 128808508500                       # Cumulative time (in ticks) in various power states (Tick)
system.cpu0.dtb_walker_cache.blockedCycles::no_mshrs            0                       # number of cycles access was blocked (Cycle)
system.cpu0.dtb_walker_cache.blockedCycles::no_targets            0                       # number of cycles access was blocked (Cycle)
system.cpu0.dtb_walker_cache.blockedCauses::no_mshrs            0                       # number of times access was blocked (Count)
system.cpu0.dtb_walker_cache.blockedCauses::no_targets            0                       # number of times access was blocked (Count)
system.cpu0.dtb_walker_cache.avgBlocked::no_mshrs          nan                       # average number of cycles each access was blocked ((Cycle/Count))
system.cpu0.dtb_walker_cache.avgBlocked::no_targets          nan                       # average number of cycles each access was blocked ((Cycle/Count))
system.cpu0.dtb_walker_cache.replacements            0                       # number of replacements (Count)
system.cpu0.dtb_walker_cache.power_state.pwrStateResidencyTicks::UNDEFINED 128808508500                       # Cumulative time (in ticks) in various power states (Tick)
system.cpu0.dtb_walker_cache.tags.tagsInUse            0                       # Average ticks per tags in use ((Tick/Count))
system.cpu0.dtb_walker_cache.tags.totalRefs            0                       # Total number of references to valid blocks. (Count)
system.cpu0.dtb_walker_cache.tags.sampledRefs            0                       # Sample count of references to valid blocks. (Count)
system.cpu0.dtb_walker_cache.tags.avgRefs          nan                       # Average number of references to valid blocks. ((Count/Count))
system.cpu0.dtb_walker_cache.tags.warmupTick            0                       # The tick when the warmup percentage was hit. (Tick)
system.cpu0.dtb_walker_cache.tags.tagAccesses            0                       # Number of tag accesses (Count)
system.cpu0.dtb_walker_cache.tags.dataAccesses            0                       # Number of data accesses (Count)
system.cpu0.dtb_walker_cache.tags.power_state.pwrStateResidencyTicks::UNDEFINED 128808508500                       # Cumulative time (in ticks) in various power states (Tick)
system.cpu0.exec_context.thread_0.numMatAluAccesses            0                       # Number of matrix alu accesses (Count)
system.cpu0.exec_context.thread_0.numCallsReturns         5537                       # Number of times a function call or return occured (Count)
system.cpu0.exec_context.thread_0.numMatInsts            0                       # Number of matrix instructions (Count)
system.cpu0.exec_context.thread_0.numIdleCycles 16961229.853337                       # Number of idle cycles (Cycle)
system.cpu0.exec_context.thread_0.numBusyCycles 222401023.146663                       # Number of busy cycles (Cycle)
system.cpu0.exec_context.thread_0.notIdleFraction     0.929140                       # Percentage of non-idle cycles (Ratio)
system.cpu0.exec_context.thread_0.idleFraction     0.070860                       # Percentage of idle cycles (Ratio)
system.cpu0.executeStats0.numInsts                  0                       # Number of executed instructions (Count)
system.cpu0.executeStats0.numNop                    0                       # Number of nop insts executed (Count)
system.cpu0.executeStats0.numBranches               0                       # Number of branches executed (Count)
system.cpu0.executeStats0.numLoadInsts              0                       # Number of load instructions executed (Count)
system.cpu0.executeStats0.numStoreInsts      16177958                       # Number of stores executed (Count)
system.cpu0.executeStats0.instRate                  0                       # Inst execution rate ((Count/Cycle))
system.cpu0.executeStats0.numFpAluAccesses     48623271                       # Number of float alu accesses (Count)
system.cpu0.executeStats0.numFpRegReads      49104399                       # Number of times the floating registers were read (Count)
system.cpu0.executeStats0.numFpRegWrites     48482166                       # Number of times the floating registers were written (Count)
system.cpu0.executeStats0.numIntAluAccesses     73438799                       # Number of integer alu accesses (Count)
system.cpu0.executeStats0.numIntRegReads     82060263                       # Number of times the integer registers were read (Count)
system.cpu0.executeStats0.numIntRegWrites     40977111                       # Number of times the integer registers were written (Count)
system.cpu0.executeStats0.numMemRefs         16177958                       # Number of memory refs (Count)
system.cpu0.executeStats0.numMiscRegReads     32416688                       # Number of times the Misc registers were read (Count)
system.cpu0.executeStats0.numVecAluAccesses            0                       # Number of vector alu accesses (Count)
system.cpu0.executeStats0.numDiscardedOps            0                       # Number of ops (including micro ops) which were discarded before commit (Count)
system.cpu0.fetchStats0.numInsts             57132124                       # Number of instructions fetched (thread level) (Count)
system.cpu0.fetchStats0.numOps              105882012                       # Number of ops (including micro ops) fetched (thread level) (Count)
system.cpu0.fetchStats0.fetchRate            0.238685                       # Number of inst fetches per cycle ((Count/Cycle))
system.cpu0.fetchStats0.numBranches           8120739                       # Number of branches fetched (Count)
system.cpu0.fetchStats0.branchRate           0.033927                       # Number of branch fetches per cycle (Ratio)
system.cpu0.fetchStats0.numFetchSuspends            0                       # Number of times Execute suspended instruction fetching (Count)
system.cpu0.icache.demandHits::cpu0.inst     65427115                       # number of demand (read+write) hits (Count)
system.cpu0.icache.demandHits::total         65427115                       # number of demand (read+write) hits (Count)
system.cpu0.icache.overallHits::cpu0.inst     65427115                       # number of overall hits (Count)
system.cpu0.icache.overallHits::total        65427115                       # number of overall hits (Count)
system.cpu0.icache.demandMisses::cpu0.inst          806                       # number of demand (read+write) misses (Count)
system.cpu0.icache.demandMisses::total            806                       # number of demand (read+write) misses (Count)
system.cpu0.icache.overallMisses::cpu0.inst          806                       # number of overall misses (Count)
system.cpu0.icache.overallMisses::total           806                       # number of overall misses (Count)
system.cpu0.icache.demandMissLatency::cpu0.inst     66399500                       # number of demand (read+write) miss ticks (Tick)
system.cpu0.icache.demandMissLatency::total     66399500                       # number of demand (read+write) miss ticks (Tick)
system.cpu0.icache.overallMissLatency::cpu0.inst     66399500                       # number of overall miss ticks (Tick)
system.cpu0.icache.overallMissLatency::total     66399500                       # number of overall miss ticks (Tick)
system.cpu0.icache.demandAccesses::cpu0.inst     65427921                       # number of demand (read+write) accesses (Count)
system.cpu0.icache.demandAccesses::total     65427921                       # number of demand (read+write) accesses (Count)
system.cpu0.icache.overallAccesses::cpu0.inst     65427921                       # number of overall (read+write) accesses (Count)
system.cpu0.icache.overallAccesses::total     65427921                       # number of overall (read+write) accesses (Count)
system.cpu0.icache.demandMissRate::cpu0.inst     0.000012                       # miss rate for demand accesses (Ratio)
system.cpu0.icache.demandMissRate::total     0.000012                       # miss rate for demand accesses (Ratio)
system.cpu0.icache.overallMissRate::cpu0.inst     0.000012                       # miss rate for overall accesses (Ratio)
system.cpu0.icache.overallMissRate::total     0.000012                       # miss rate for overall accesses (Ratio)
system.cpu0.icache.demandAvgMissLatency::cpu0.inst 82381.513648                       # average overall miss latency in ticks ((Tick/Count))
system.cpu0.icache.demandAvgMissLatency::total 82381.513648                       # average overall miss latency in ticks ((Tick/Count))
system.cpu0.icache.overallAvgMissLatency::cpu0.inst 82381.513648                       # average overall miss latency ((Tick/Count))
system.cpu0.icache.overallAvgMissLatency::total 82381.513648                       # average overall miss latency ((Tick/Count))
system.cpu0.icache.blockedCycles::no_mshrs            0                       # number of cycles access was blocked (Cycle)
system.cpu0.icache.blockedCycles::no_targets            0                       # number of cycles access was blocked (Cycle)
system.cpu0.icache.blockedCauses::no_mshrs            0                       # number of times access was blocked (Count)
system.cpu0.icache.blockedCauses::no_targets            0                       # number of times access was blocked (Count)
system.cpu0.icache.avgBlocked::no_mshrs           nan                       # average number of cycles each access was blocked ((Cycle/Count))
system.cpu0.icache.avgBlocked::no_targets          nan                       # average number of cycles each access was blocked ((Cycle/Count))
system.cpu0.icache.writebacks::writebacks          331                       # number of writebacks (Count)
system.cpu0.icache.writebacks::total              331                       # number of writebacks (Count)
system.cpu0.icache.demandMshrMisses::cpu0.inst          806                       # number of demand (read+write) MSHR misses (Count)
system.cpu0.icache.demandMshrMisses::total          806                       # number of demand (read+write) MSHR misses (Count)
system.cpu0.icache.overallMshrMisses::cpu0.inst          806                       # number of overall MSHR misses (Count)
system.cpu0.icache.overallMshrMisses::total          806                       # number of overall MSHR misses (Count)
system.cpu0.icache.demandMshrMissLatency::cpu0.inst     65593500                       # number of demand (read+write) MSHR miss ticks (Tick)
system.cpu0.icache.demandMshrMissLatency::total     65593500                       # number of demand (read+write) MSHR miss ticks (Tick)
system.cpu0.icache.overallMshrMissLatency::cpu0.inst     65593500                       # number of overall MSHR miss ticks (Tick)
system.cpu0.icache.overallMshrMissLatency::total     65593500                       # number of overall MSHR miss ticks (Tick)
system.cpu0.icache.demandMshrMissRate::cpu0.inst     0.000012                       # mshr miss ratio for demand accesses (Ratio)
system.cpu0.icache.demandMshrMissRate::total     0.000012                       # mshr miss ratio for demand accesses (Ratio)
system.cpu0.icache.overallMshrMissRate::cpu0.inst     0.000012                       # mshr miss ratio for overall accesses (Ratio)
system.cpu0.icache.overallMshrMissRate::total     0.000012                       # mshr miss ratio for overall accesses (Ratio)
system.cpu0.icache.demandAvgMshrMissLatency::cpu0.inst 81381.513648                       # average overall mshr miss latency ((Tick/Count))
system.cpu0.icache.demandAvgMshrMissLatency::total 81381.513648                       # average overall mshr miss latency ((Tick/Count))
system.cpu0.icache.overallAvgMshrMissLatency::cpu0.inst 81381.513648                       # average overall mshr miss latency ((Tick/Count))
system.cpu0.icache.overallAvgMshrMissLatency::total 81381.513648                       # average overall mshr miss latency ((Tick/Count))
system.cpu0.icache.replacements                   331                       # number of replacements (Count)
system.cpu0.icache.ReadReq.hits::cpu0.inst     65427115                       # number of ReadReq hits (Count)
system.cpu0.icache.ReadReq.hits::total       65427115                       # number of ReadReq hits (Count)
system.cpu0.icache.ReadReq.misses::cpu0.inst          806                       # number of ReadReq misses (Count)
system.cpu0.icache.ReadReq.misses::total          806                       # number of ReadReq misses (Count)
system.cpu0.icache.ReadReq.missLatency::cpu0.inst     66399500                       # number of ReadReq miss ticks (Tick)
system.cpu0.icache.ReadReq.missLatency::total     66399500                       # number of ReadReq miss ticks (Tick)
system.cpu0.icache.ReadReq.accesses::cpu0.inst     65427921                       # number of ReadReq accesses(hits+misses) (Count)
system.cpu0.icache.ReadReq.accesses::total     65427921                       # number of ReadReq accesses(hits+misses) (Count)
system.cpu0.icache.ReadReq.missRate::cpu0.inst     0.000012                       # miss rate for ReadReq accesses (Ratio)
system.cpu0.icache.ReadReq.missRate::total     0.000012                       # miss rate for ReadReq accesses (Ratio)
system.cpu0.icache.ReadReq.avgMissLatency::cpu0.inst 82381.513648                       # average ReadReq miss latency ((Tick/Count))
system.cpu0.icache.ReadReq.avgMissLatency::total 82381.513648                       # average ReadReq miss latency ((Tick/Count))
system.cpu0.icache.ReadReq.mshrMisses::cpu0.inst          806                       # number of ReadReq MSHR misses (Count)
system.cpu0.icache.ReadReq.mshrMisses::total          806                       # number of ReadReq MSHR misses (Count)
system.cpu0.icache.ReadReq.mshrMissLatency::cpu0.inst     65593500                       # number of ReadReq MSHR miss ticks (Tick)
system.cpu0.icache.ReadReq.mshrMissLatency::total     65593500                       # number of ReadReq MSHR miss ticks (Tick)
system.cpu0.icache.ReadReq.mshrMissRate::cpu0.inst     0.000012                       # mshr miss rate for ReadReq accesses (Ratio)
system.cpu0.icache.ReadReq.mshrMissRate::total     0.000012                       # mshr miss rate for ReadReq accesses (Ratio)
system.cpu0.icache.ReadReq.avgMshrMissLatency::cpu0.inst 81381.513648                       # average ReadReq mshr miss latency ((Tick/Count))
system.cpu0.icache.ReadReq.avgMshrMissLatency::total 81381.513648                       # average ReadReq mshr miss latency ((Tick/Count))
system.cpu0.icache.power_state.pwrStateResidencyTicks::UNDEFINED 128808508500                       # Cumulative time (in ticks) in various power states (Tick)
system.cpu0.icache.tags.tagsInUse          434.034943                       # Average ticks per tags in use ((Tick/Count))
system.cpu0.icache.tags.totalRefs            65427921                       # Total number of references to valid blocks. (Count)
system.cpu0.icache.tags.sampledRefs               806                       # Sample count of references to valid blocks. (Count)
system.cpu0.icache.tags.avgRefs          81176.080645                       # Average number of references to valid blocks. ((Count/Count))
system.cpu0.icache.tags.warmupTick              87500                       # The tick when the warmup percentage was hit. (Tick)
system.cpu0.icache.tags.occupancies::cpu0.inst   434.034943                       # Average occupied blocks per tick, per requestor ((Count/Tick))
system.cpu0.icache.tags.avgOccs::cpu0.inst     0.847724                       # Average percentage of cache occupancy ((Ratio/Tick))
system.cpu0.icache.tags.avgOccs::total       0.847724                       # Average percentage of cache occupancy ((Ratio/Tick))
system.cpu0.icache.tags.occupanciesTaskId::1024          475                       # Occupied blocks per task id (Count)
system.cpu0.icache.tags.ageTaskId_1024::3          194                       # Occupied blocks per task id, per block age (Count)
system.cpu0.icache.tags.ageTaskId_1024::4          281                       # Occupied blocks per task id, per block age (Count)
system.cpu0.icache.tags.ratioOccsTaskId::1024     0.927734                       # Ratio of occupied blocks and all blocks, per task id (Ratio)
system.cpu0.icache.tags.tagAccesses         130856648                       # Number of tag accesses (Count)
system.cpu0.icache.tags.dataAccesses        130856648                       # Number of data accesses (Count)
system.cpu0.icache.tags.power_state.pwrStateResidencyTicks::UNDEFINED 128808508500                       # Cumulative time (in ticks) in various power states (Tick)
system.cpu0.interrupts.clk_domain.clock          8000                       # Clock period in ticks (Tick)
system.cpu0.itb_walker_cache.blockedCycles::no_mshrs            0                       # number of cycles access was blocked (Cycle)
system.cpu0.itb_walker_cache.blockedCycles::no_targets            0                       # number of cycles access was blocked (Cycle)
system.cpu0.itb_walker_cache.blockedCauses::no_mshrs            0                       # number of times access was blocked (Count)
system.cpu0.itb_walker_cache.blockedCauses::no_targets            0                       # number of times access was blocked (Count)
system.cpu0.itb_walker_cache.avgBlocked::no_mshrs          nan                       # average number of cycles each access was blocked ((Cycle/Count))
system.cpu0.itb_walker_cache.avgBlocked::no_targets          nan                       # average number of cycles each access was blocked ((Cycle/Count))
system.cpu0.itb_walker_cache.replacements            0                       # number of replacements (Count)
system.cpu0.itb_walker_cache.power_state.pwrStateResidencyTicks::UNDEFINED 128808508500                       # Cumulative time (in ticks) in various power states (Tick)
system.cpu0.itb_walker_cache.tags.tagsInUse            0                       # Average ticks per tags in use ((Tick/Count))
system.cpu0.itb_walker_cache.tags.totalRefs            0                       # Total number of references to valid blocks. (Count)
system.cpu0.itb_walker_cache.tags.sampledRefs            0                       # Sample count of references to valid blocks. (Count)
system.cpu0.itb_walker_cache.tags.avgRefs          nan                       # Average number of references to valid blocks. ((Count/Count))
system.cpu0.itb_walker_cache.tags.warmupTick            0                       # The tick when the warmup percentage was hit. (Tick)
system.cpu0.itb_walker_cache.tags.tagAccesses            0                       # Number of tag accesses (Count)
system.cpu0.itb_walker_cache.tags.dataAccesses            0                       # Number of data accesses (Count)
system.cpu0.itb_walker_cache.tags.power_state.pwrStateResidencyTicks::UNDEFINED 128808508500                       # Cumulative time (in ticks) in various power states (Tick)
system.cpu0.mmu.dtb.rdAccesses               16523993                       # TLB accesses on read requests (Count)
system.cpu0.mmu.dtb.wrAccesses                 153974                       # TLB accesses on write requests (Count)
system.cpu0.mmu.dtb.rdMisses                      144                       # TLB misses on read requests (Count)
system.cpu0.mmu.dtb.wrMisses                      295                       # TLB misses on write requests (Count)
system.cpu0.mmu.dtb.walker.power_state.pwrStateResidencyTicks::UNDEFINED 128808508500                       # Cumulative time (in ticks) in various power states (Tick)
system.cpu0.mmu.itb.rdAccesses                      0                       # TLB accesses on read requests (Count)
system.cpu0.mmu.itb.wrAccesses               65427921                       # TLB accesses on write requests (Count)
system.cpu0.mmu.itb.rdMisses                        0                       # TLB misses on read requests (Count)
system.cpu0.mmu.itb.wrMisses                       83                       # TLB misses on write requests (Count)
system.cpu0.mmu.itb.walker.power_state.pwrStateResidencyTicks::UNDEFINED 128808508500                       # Cumulative time (in ticks) in various power states (Tick)
system.cpu0.power_state.pwrStateResidencyTicks::ON 128808508500                       # Cumulative time (in ticks) in various power states (Tick)
system.cpu0.thread_0.numInsts                       0                       # Number of Instructions committed (Count)
system.cpu0.thread_0.numOps                         0                       # Number of Ops committed (Count)
system.cpu0.thread_0.numMemRefs                     0                       # Number of Memory References (Count)
system.cpu0.workload.numSyscalls                   32                       # Number of system calls (Count)
system.cpu1.numCycles                       257617017                       # Number of cpu cycles simulated (Cycle)
system.cpu1.cpi                              4.509145                       # CPI: cycles per instruction (core level) ((Cycle/Count))
system.cpu1.ipc                              0.221772                       # IPC: instructions per cycle (core level) ((Count/Cycle))
system.cpu1.numWorkItemsStarted                     0                       # Number of work items this cpu started (Count)
system.cpu1.numWorkItemsCompleted                   0                       # Number of work items this cpu completed (Count)
system.cpu1.commitStats0.numInsts            57132124                       # Number of instructions committed (thread level) (Count)
system.cpu1.commitStats0.numOps             105882012                       # Number of ops (including micro ops) committed (thread level) (Count)
system.cpu1.commitStats0.numInstsNotNOP             0                       # Number of instructions committed excluding NOPs or prefetches (Count)
system.cpu1.commitStats0.numOpsNotNOP               0                       # Number of Ops (including micro ops) Simulated (Count)
system.cpu1.commitStats0.cpi                 4.509145                       # CPI: cycles per instruction (thread level) ((Cycle/Count))
system.cpu1.commitStats0.ipc                 0.221772                       # IPC: instructions per cycle (thread level) ((Count/Cycle))
system.cpu1.commitStats0.numMemRefs                 0                       # Number of memory references committed (Count)
system.cpu1.commitStats0.numFpInsts          48623271                       # Number of float instructions (Count)
system.cpu1.commitStats0.numIntInsts         73438799                       # Number of integer instructions (Count)
system.cpu1.commitStats0.numLoadInsts        16023989                       # Number of load instructions (Count)
system.cpu1.commitStats0.numStoreInsts         153969                       # Number of store instructions (Count)
system.cpu1.commitStats0.numVecInsts                0                       # Number of vector instructions (Count)
system.cpu1.commitStats0.committedInstType::No_OpClass        41039      0.04%      0.04% # Class of committed instruction. (Count)
system.cpu1.commitStats0.committedInstType::IntAlu     57179644     54.00%     54.04% # Class of committed instruction. (Count)
system.cpu1.commitStats0.committedInstType::IntMult          113      0.00%     54.04% # Class of committed instruction. (Count)
system.cpu1.commitStats0.committedInstType::IntDiv         1652      0.00%     54.04% # Class of committed instruction. (Count)
system.cpu1.commitStats0.committedInstType::FloatAdd     16000223     15.11%     69.15% # Class of committed instruction. (Count)
system.cpu1.commitStats0.committedInstType::FloatCmp            0      0.00%     69.15% # Class of committed instruction. (Count)
system.cpu1.commitStats0.committedInstType::FloatCvt            0      0.00%     69.15% # Class of committed instruction. (Count)
system.cpu1.commitStats0.committedInstType::FloatMult            0      0.00%     69.15% # Class of committed instruction. (Count)
system.cpu1.commitStats0.committedInstType::FloatMultAcc            0      0.00%     69.15% # Class of committed instruction. (Count)
system.cpu1.commitStats0.committedInstType::FloatDiv            0      0.00%     69.15% # Class of committed instruction. (Count)
system.cpu1.commitStats0.committedInstType::FloatMisc            0      0.00%     69.15% # Class of committed instruction. (Count)
system.cpu1.commitStats0.committedInstType::FloatSqrt            0      0.00%     69.15% # Class of committed instruction. (Count)
system.cpu1.commitStats0.committedInstType::SimdAdd           10      0.00%     69.15% # Class of committed instruction. (Count)
system.cpu1.commitStats0.committedInstType::SimdAddAcc            0      0.00%     69.15% # Class of committed instruction. (Count)
system.cpu1.commitStats0.committedInstType::SimdAlu       240423      0.23%     69.38% # Class of committed instruction. (Count)
system.cpu1.commitStats0.committedInstType::SimdCmp            2      0.00%     69.38% # Class of committed instruction. (Count)
system.cpu1.commitStats0.committedInstType::SimdCvt          324      0.00%     69.38% # Class of committed instruction. (Count)
system.cpu1.commitStats0.committedInstType::SimdMisc        80618      0.08%     69.46% # Class of committed instruction. (Count)
system.cpu1.commitStats0.committedInstType::SimdMult            0      0.00%     69.46% # Class of committed instruction. (Count)
system.cpu1.commitStats0.committedInstType::SimdMultAcc            0      0.00%     69.46% # Class of committed instruction. (Count)
system.cpu1.commitStats0.committedInstType::SimdMatMultAcc            0      0.00%     69.46% # Class of committed instruction. (Count)
system.cpu1.commitStats0.committedInstType::SimdShift            3      0.00%     69.46% # Class of committed instruction. (Count)
system.cpu1.commitStats0.committedInstType::SimdShiftAcc            0      0.00%     69.46% # Class of committed instruction. (Count)
system.cpu1.commitStats0.committedInstType::SimdDiv            0      0.00%     69.46% # Class of committed instruction. (Count)
system.cpu1.commitStats0.committedInstType::SimdSqrt            0      0.00%     69.46% # Class of committed instruction. (Count)
system.cpu1.commitStats0.committedInstType::SimdFloatAdd      8000000      7.56%     77.01% # Class of committed instruction. (Count)
system.cpu1.commitStats0.committedInstType::SimdFloatAlu            0      0.00%     77.01% # Class of committed instruction. (Count)
system.cpu1.commitStats0.committedInstType::SimdFloatCmp            0      0.00%     77.01% # Class of committed instruction. (Count)
system.cpu1.commitStats0.committedInstType::SimdFloatCvt        80003      0.08%     77.09% # Class of committed instruction. (Count)
system.cpu1.commitStats0.committedInstType::SimdFloatDiv            0      0.00%     77.09% # Class of committed instruction. (Count)
system.cpu1.commitStats0.committedInstType::SimdFloatMisc            0      0.00%     77.09% # Class of committed instruction. (Count)
system.cpu1.commitStats0.committedInstType::SimdFloatMult      8080000      7.63%     84.72% # Class of committed instruction. (Count)
system.cpu1.commitStats0.committedInstType::SimdFloatMultAcc            0      0.00%     84.72% # Class of committed instruction. (Count)
system.cpu1.commitStats0.committedInstType::SimdFloatMatMultAcc            0      0.00%     84.72% # Class of committed instruction. (Count)
system.cpu1.commitStats0.committedInstType::SimdFloatSqrt            0      0.00%     84.72% # Class of committed instruction. (Count)
system.cpu1.commitStats0.committedInstType::SimdReduceAdd            0      0.00%     84.72% # Class of committed instruction. (Count)
system.cpu1.commitStats0.committedInstType::SimdReduceAlu            0      0.00%     84.72% # Class of committed instruction. (Count)
system.cpu1.commitStats0.committedInstType::SimdReduceCmp            0      0.00%     84.72% # Class of committed instruction. (Count)
system.cpu1.commitStats0.committedInstType::SimdFloatReduceAdd            0      0.00%     84.72% # Class of committed instruction. (Count)
system.cpu1.commitStats0.committedInstType::SimdFloatReduceCmp            0      0.00%     84.72% # Class of committed instruction. (Count)
system.cpu1.commitStats0.committedInstType::SimdAes            0      0.00%     84.72% # Class of committed instruction. (Count)
system.cpu1.commitStats0.committedInstType::SimdAesMix            0      0.00%     84.72% # Class of committed instruction. (Count)
system.cpu1.commitStats0.committedInstType::SimdSha1Hash            0      0.00%     84.72% # Class of committed instruction. (Count)
system.cpu1.commitStats0.committedInstType::SimdSha1Hash2            0      0.00%     84.72% # Class of committed instruction. (Count)
system.cpu1.commitStats0.committedInstType::SimdSha256Hash            0      0.00%     84.72% # Class of committed instruction. (Count)
system.cpu1.commitStats0.committedInstType::SimdSha256Hash2            0      0.00%     84.72% # Class of committed instruction. (Count)
system.cpu1.commitStats0.committedInstType::SimdShaSigma2            0      0.00%     84.72% # Class of committed instruction. (Count)
system.cpu1.commitStats0.committedInstType::SimdShaSigma3            0      0.00%     84.72% # Class of committed instruction. (Count)
system.cpu1.commitStats0.committedInstType::SimdPredAlu            0      0.00%     84.72% # Class of committed instruction. (Count)
system.cpu1.commitStats0.committedInstType::Matrix            0      0.00%     84.72% # Class of committed instruction. (Count)
system.cpu1.commitStats0.committedInstType::MatrixMov            0      0.00%     84.72% # Class of committed instruction. (Count)
system.cpu1.commitStats0.committedInstType::MatrixOP            0      0.00%     84.72% # Class of committed instruction. (Count)
system.cpu1.commitStats0.committedInstType::MemRead        23588      0.02%     84.74% # Class of committed instruction. (Count)
system.cpu1.commitStats0.committedInstType::MemWrite        13058      0.01%     84.76% # Class of committed instruction. (Count)
system.cpu1.commitStats0.committedInstType::FloatMemRead     16000401     15.11%     99.87% # Class of committed instruction. (Count)
system.cpu1.commitStats0.committedInstType::FloatMemWrite       140911      0.13%    100.00% # Class of committed instruction. (Count)
system.cpu1.commitStats0.committedInstType::IprAccess            0      0.00%    100.00% # Class of committed instruction. (Count)
system.cpu1.commitStats0.committedInstType::InstPrefetch            0      0.00%    100.00% # Class of committed instruction. (Count)
system.cpu1.commitStats0.committedInstType::VectorUnitStrideLoad            0      0.00%    100.00% # Class of committed instruction. (Count)
system.cpu1.commitStats0.committedInstType::VectorUnitStrideStore            0      0.00%    100.00% # Class of committed instruction. (Count)
system.cpu1.commitStats0.committedInstType::VectorUnitStrideMaskLoad            0      0.00%    100.00% # Class of committed instruction. (Count)
system.cpu1.commitStats0.committedInstType::VectorUnitStrideMaskStore            0      0.00%    100.00% # Class of committed instruction. (Count)
system.cpu1.commitStats0.committedInstType::VectorStridedLoad            0      0.00%    100.00% # Class of committed instruction. (Count)
system.cpu1.commitStats0.committedInstType::VectorStridedStore            0      0.00%    100.00% # Class of committed instruction. (Count)
system.cpu1.commitStats0.committedInstType::VectorIndexedLoad            0      0.00%    100.00% # Class of committed instruction. (Count)
system.cpu1.commitStats0.committedInstType::VectorIndexedStore            0      0.00%    100.00% # Class of committed instruction. (Count)
system.cpu1.commitStats0.committedInstType::VectorUnitStrideFaultOnlyFirstLoad            0      0.00%    100.00% # Class of committed instruction. (Count)
system.cpu1.commitStats0.committedInstType::VectorWholeRegisterLoad            0      0.00%    100.00% # Class of committed instruction. (Count)
system.cpu1.commitStats0.committedInstType::VectorWholeRegisterStore            0      0.00%    100.00% # Class of committed instruction. (Count)
system.cpu1.commitStats0.committedInstType::VectorIntegerArith            0      0.00%    100.00% # Class of committed instruction. (Count)
system.cpu1.commitStats0.committedInstType::VectorFloatArith            0      0.00%    100.00% # Class of committed instruction. (Count)
system.cpu1.commitStats0.committedInstType::VectorFloatConvert            0      0.00%    100.00% # Class of committed instruction. (Count)
system.cpu1.commitStats0.committedInstType::VectorIntegerReduce            0      0.00%    100.00% # Class of committed instruction. (Count)
system.cpu1.commitStats0.committedInstType::VectorFloatReduce            0      0.00%    100.00% # Class of committed instruction. (Count)
system.cpu1.commitStats0.committedInstType::VectorMisc            0      0.00%    100.00% # Class of committed instruction. (Count)
system.cpu1.commitStats0.committedInstType::VectorIntegerExtension            0      0.00%    100.00% # Class of committed instruction. (Count)
system.cpu1.commitStats0.committedInstType::VectorConfig            0      0.00%    100.00% # Class of committed instruction. (Count)
system.cpu1.commitStats0.committedInstType::total    105882012                       # Class of committed instruction. (Count)
system.cpu1.commitStats0.committedControl::IsControl      8120739                       # Class of control type instructions committed (Count)
system.cpu1.commitStats0.committedControl::IsDirectControl      8115562                       # Class of control type instructions committed (Count)
system.cpu1.commitStats0.committedControl::IsIndirectControl         5177                       # Class of control type instructions committed (Count)
system.cpu1.commitStats0.committedControl::IsCondControl      8109123                       # Class of control type instructions committed (Count)
system.cpu1.commitStats0.committedControl::IsUncondControl        11616                       # Class of control type instructions committed (Count)
system.cpu1.commitStats0.committedControl::IsCall         2771                       # Class of control type instructions committed (Count)
system.cpu1.commitStats0.committedControl::IsReturn         2766                       # Class of control type instructions committed (Count)
system.cpu1.dcache.demandHits::cpu1.data     15447918                       # number of demand (read+write) hits (Count)
system.cpu1.dcache.demandHits::total         15447918                       # number of demand (read+write) hits (Count)
system.cpu1.dcache.overallHits::cpu1.data     15447918                       # number of overall hits (Count)
system.cpu1.dcache.overallHits::total        15447918                       # number of overall hits (Count)
system.cpu1.dcache.demandMisses::cpu1.data      1229841                       # number of demand (read+write) misses (Count)
system.cpu1.dcache.demandMisses::total        1229841                       # number of demand (read+write) misses (Count)
system.cpu1.dcache.overallMisses::cpu1.data      1229841                       # number of overall misses (Count)
system.cpu1.dcache.overallMisses::total       1229841                       # number of overall misses (Count)
system.cpu1.dcache.demandMissLatency::cpu1.data  49650254000                       # number of demand (read+write) miss ticks (Tick)
system.cpu1.dcache.demandMissLatency::total  49650254000                       # number of demand (read+write) miss ticks (Tick)
system.cpu1.dcache.overallMissLatency::cpu1.data  49650254000                       # number of overall miss ticks (Tick)
system.cpu1.dcache.overallMissLatency::total  49650254000                       # number of overall miss ticks (Tick)
system.cpu1.dcache.demandAccesses::cpu1.data     16677759                       # number of demand (read+write) accesses (Count)
system.cpu1.dcache.demandAccesses::total     16677759                       # number of demand (read+write) accesses (Count)
system.cpu1.dcache.overallAccesses::cpu1.data     16677759                       # number of overall (read+write) accesses (Count)
system.cpu1.dcache.overallAccesses::total     16677759                       # number of overall (read+write) accesses (Count)
system.cpu1.dcache.demandMissRate::cpu1.data     0.073741                       # miss rate for demand accesses (Ratio)
system.cpu1.dcache.demandMissRate::total     0.073741                       # miss rate for demand accesses (Ratio)
system.cpu1.dcache.overallMissRate::cpu1.data     0.073741                       # miss rate for overall accesses (Ratio)
system.cpu1.dcache.overallMissRate::total     0.073741                       # miss rate for overall accesses (Ratio)
system.cpu1.dcache.demandAvgMissLatency::cpu1.data 40371.278889                       # average overall miss latency in ticks ((Tick/Count))
system.cpu1.dcache.demandAvgMissLatency::total 40371.278889                       # average overall miss latency in ticks ((Tick/Count))
system.cpu1.dcache.overallAvgMissLatency::cpu1.data 40371.278889                       # average overall miss latency ((Tick/Count))
system.cpu1.dcache.overallAvgMissLatency::total 40371.278889                       # average overall miss latency ((Tick/Count))
system.cpu1.dcache.blockedCycles::no_mshrs            0                       # number of cycles access was blocked (Cycle)
system.cpu1.dcache.blockedCycles::no_targets            0                       # number of cycles access was blocked (Cycle)
system.cpu1.dcache.blockedCauses::no_mshrs            0                       # number of times access was blocked (Count)
system.cpu1.dcache.blockedCauses::no_targets            0                       # number of times access was blocked (Count)
system.cpu1.dcache.avgBlocked::no_mshrs           nan                       # average number of cycles each access was blocked ((Cycle/Count))
system.cpu1.dcache.avgBlocked::no_targets          nan                       # average number of cycles each access was blocked ((Cycle/Count))
system.cpu1.dcache.writebacks::writebacks        30106                       # number of writebacks (Count)
system.cpu1.dcache.writebacks::total            30106                       # number of writebacks (Count)
system.cpu1.dcache.demandMshrMisses::cpu1.data      1229841                       # number of demand (read+write) MSHR misses (Count)
system.cpu1.dcache.demandMshrMisses::total      1229841                       # number of demand (read+write) MSHR misses (Count)
system.cpu1.dcache.overallMshrMisses::cpu1.data      1229841                       # number of overall MSHR misses (Count)
system.cpu1.dcache.overallMshrMisses::total      1229841                       # number of overall MSHR misses (Count)
system.cpu1.dcache.demandMshrMissLatency::cpu1.data  48420413000                       # number of demand (read+write) MSHR miss ticks (Tick)
system.cpu1.dcache.demandMshrMissLatency::total  48420413000                       # number of demand (read+write) MSHR miss ticks (Tick)
system.cpu1.dcache.overallMshrMissLatency::cpu1.data  48420413000                       # number of overall MSHR miss ticks (Tick)
system.cpu1.dcache.overallMshrMissLatency::total  48420413000                       # number of overall MSHR miss ticks (Tick)
system.cpu1.dcache.demandMshrMissRate::cpu1.data     0.073741                       # mshr miss ratio for demand accesses (Ratio)
system.cpu1.dcache.demandMshrMissRate::total     0.073741                       # mshr miss ratio for demand accesses (Ratio)
system.cpu1.dcache.overallMshrMissRate::cpu1.data     0.073741                       # mshr miss ratio for overall accesses (Ratio)
system.cpu1.dcache.overallMshrMissRate::total     0.073741                       # mshr miss ratio for overall accesses (Ratio)
system.cpu1.dcache.demandAvgMshrMissLatency::cpu1.data 39371.278889                       # average overall mshr miss latency ((Tick/Count))
system.cpu1.dcache.demandAvgMshrMissLatency::total 39371.278889                       # average overall mshr miss latency ((Tick/Count))
system.cpu1.dcache.overallAvgMshrMissLatency::cpu1.data 39371.278889                       # average overall mshr miss latency ((Tick/Count))
system.cpu1.dcache.overallAvgMshrMissLatency::total 39371.278889                       # average overall mshr miss latency ((Tick/Count))
system.cpu1.dcache.replacements               1229332                       # number of replacements (Count)
system.cpu1.dcache.LockedRMWReadReq.hits::cpu1.data           39                       # number of LockedRMWReadReq hits (Count)
system.cpu1.dcache.LockedRMWReadReq.hits::total           39                       # number of LockedRMWReadReq hits (Count)
system.cpu1.dcache.LockedRMWReadReq.misses::cpu1.data            3                       # number of LockedRMWReadReq misses (Count)
system.cpu1.dcache.LockedRMWReadReq.misses::total            3                       # number of LockedRMWReadReq misses (Count)
system.cpu1.dcache.LockedRMWReadReq.missLatency::cpu1.data       272000                       # number of LockedRMWReadReq miss ticks (Tick)
system.cpu1.dcache.LockedRMWReadReq.missLatency::total       272000                       # number of LockedRMWReadReq miss ticks (Tick)
system.cpu1.dcache.LockedRMWReadReq.accesses::cpu1.data           42                       # number of LockedRMWReadReq accesses(hits+misses) (Count)
system.cpu1.dcache.LockedRMWReadReq.accesses::total           42                       # number of LockedRMWReadReq accesses(hits+misses) (Count)
system.cpu1.dcache.LockedRMWReadReq.missRate::cpu1.data     0.071429                       # miss rate for LockedRMWReadReq accesses (Ratio)
system.cpu1.dcache.LockedRMWReadReq.missRate::total     0.071429                       # miss rate for LockedRMWReadReq accesses (Ratio)
system.cpu1.dcache.LockedRMWReadReq.avgMissLatency::cpu1.data 90666.666667                       # average LockedRMWReadReq miss latency ((Tick/Count))
system.cpu1.dcache.LockedRMWReadReq.avgMissLatency::total 90666.666667                       # average LockedRMWReadReq miss latency ((Tick/Count))
system.cpu1.dcache.LockedRMWReadReq.mshrMisses::cpu1.data            3                       # number of LockedRMWReadReq MSHR misses (Count)
system.cpu1.dcache.LockedRMWReadReq.mshrMisses::total            3                       # number of LockedRMWReadReq MSHR misses (Count)
system.cpu1.dcache.LockedRMWReadReq.mshrMissLatency::cpu1.data       580000                       # number of LockedRMWReadReq MSHR miss ticks (Tick)
system.cpu1.dcache.LockedRMWReadReq.mshrMissLatency::total       580000                       # number of LockedRMWReadReq MSHR miss ticks (Tick)
system.cpu1.dcache.LockedRMWReadReq.mshrMissRate::cpu1.data     0.071429                       # mshr miss rate for LockedRMWReadReq accesses (Ratio)
system.cpu1.dcache.LockedRMWReadReq.mshrMissRate::total     0.071429                       # mshr miss rate for LockedRMWReadReq accesses (Ratio)
system.cpu1.dcache.LockedRMWReadReq.avgMshrMissLatency::cpu1.data 193333.333333                       # average LockedRMWReadReq mshr miss latency ((Tick/Count))
system.cpu1.dcache.LockedRMWReadReq.avgMshrMissLatency::total 193333.333333                       # average LockedRMWReadReq mshr miss latency ((Tick/Count))
system.cpu1.dcache.LockedRMWWriteReq.hits::cpu1.data           42                       # number of LockedRMWWriteReq hits (Count)
system.cpu1.dcache.LockedRMWWriteReq.hits::total           42                       # number of LockedRMWWriteReq hits (Count)
system.cpu1.dcache.LockedRMWWriteReq.accesses::cpu1.data           42                       # number of LockedRMWWriteReq accesses(hits+misses) (Count)
system.cpu1.dcache.LockedRMWWriteReq.accesses::total           42                       # number of LockedRMWWriteReq accesses(hits+misses) (Count)
system.cpu1.dcache.ReadReq.hits::cpu1.data     15310739                       # number of ReadReq hits (Count)
system.cpu1.dcache.ReadReq.hits::total       15310739                       # number of ReadReq hits (Count)
system.cpu1.dcache.ReadReq.misses::cpu1.data      1213211                       # number of ReadReq misses (Count)
system.cpu1.dcache.ReadReq.misses::total      1213211                       # number of ReadReq misses (Count)
system.cpu1.dcache.ReadReq.missLatency::cpu1.data  48659572500                       # number of ReadReq miss ticks (Tick)
system.cpu1.dcache.ReadReq.missLatency::total  48659572500                       # number of ReadReq miss ticks (Tick)
system.cpu1.dcache.ReadReq.accesses::cpu1.data     16523950                       # number of ReadReq accesses(hits+misses) (Count)
system.cpu1.dcache.ReadReq.accesses::total     16523950                       # number of ReadReq accesses(hits+misses) (Count)
system.cpu1.dcache.ReadReq.missRate::cpu1.data     0.073421                       # miss rate for ReadReq accesses (Ratio)
system.cpu1.dcache.ReadReq.missRate::total     0.073421                       # miss rate for ReadReq accesses (Ratio)
system.cpu1.dcache.ReadReq.avgMissLatency::cpu1.data 40108.087134                       # average ReadReq miss latency ((Tick/Count))
system.cpu1.dcache.ReadReq.avgMissLatency::total 40108.087134                       # average ReadReq miss latency ((Tick/Count))
system.cpu1.dcache.ReadReq.mshrMisses::cpu1.data      1213211                       # number of ReadReq MSHR misses (Count)
system.cpu1.dcache.ReadReq.mshrMisses::total      1213211                       # number of ReadReq MSHR misses (Count)
system.cpu1.dcache.ReadReq.mshrMissLatency::cpu1.data  47446361500                       # number of ReadReq MSHR miss ticks (Tick)
system.cpu1.dcache.ReadReq.mshrMissLatency::total  47446361500                       # number of ReadReq MSHR miss ticks (Tick)
system.cpu1.dcache.ReadReq.mshrMissRate::cpu1.data     0.073421                       # mshr miss rate for ReadReq accesses (Ratio)
system.cpu1.dcache.ReadReq.mshrMissRate::total     0.073421                       # mshr miss rate for ReadReq accesses (Ratio)
system.cpu1.dcache.ReadReq.avgMshrMissLatency::cpu1.data 39108.087134                       # average ReadReq mshr miss latency ((Tick/Count))
system.cpu1.dcache.ReadReq.avgMshrMissLatency::total 39108.087134                       # average ReadReq mshr miss latency ((Tick/Count))
system.cpu1.dcache.WriteReq.hits::cpu1.data       137179                       # number of WriteReq hits (Count)
system.cpu1.dcache.WriteReq.hits::total        137179                       # number of WriteReq hits (Count)
system.cpu1.dcache.WriteReq.misses::cpu1.data        16630                       # number of WriteReq misses (Count)
system.cpu1.dcache.WriteReq.misses::total        16630                       # number of WriteReq misses (Count)
system.cpu1.dcache.WriteReq.missLatency::cpu1.data    990681500                       # number of WriteReq miss ticks (Tick)
system.cpu1.dcache.WriteReq.missLatency::total    990681500                       # number of WriteReq miss ticks (Tick)
system.cpu1.dcache.WriteReq.accesses::cpu1.data       153809                       # number of WriteReq accesses(hits+misses) (Count)
system.cpu1.dcache.WriteReq.accesses::total       153809                       # number of WriteReq accesses(hits+misses) (Count)
system.cpu1.dcache.WriteReq.missRate::cpu1.data     0.108121                       # miss rate for WriteReq accesses (Ratio)
system.cpu1.dcache.WriteReq.missRate::total     0.108121                       # miss rate for WriteReq accesses (Ratio)
[...]
system.mem_ctrls.dram.writeRowHitRate           85.85                       # Row buffer hit rate for writes (Ratio)
system.mem_ctrls.dram.bytesPerActivate::samples       360784                       # Bytes accessed per row activation (Byte)
system.mem_ctrls.dram.bytesPerActivate::mean   161.507295                       # Bytes accessed per row activation (Byte)
system.mem_ctrls.dram.bytesPerActivate::gmean   146.107025                       # Bytes accessed per row activation (Byte)
system.mem_ctrls.dram.bytesPerActivate::stdev    86.837175                       # Bytes accessed per row activation (Byte)
system.mem_ctrls.dram.bytesPerActivate::0-127        52962     14.68%     14.68% # Bytes accessed per row activation (Byte)
system.mem_ctrls.dram.bytesPerActivate::128-255       285306     79.08%     93.76% # Bytes accessed per row activation (Byte)
system.mem_ctrls.dram.bytesPerActivate::256-383        13963      3.87%     97.63% # Bytes accessed per row activation (Byte)
system.mem_ctrls.dram.bytesPerActivate::384-511         5951      1.65%     99.28% # Bytes accessed per row activation (Byte)
system.mem_ctrls.dram.bytesPerActivate::512-639          413      0.11%     99.39% # Bytes accessed per row activation (Byte)
system.mem_ctrls.dram.bytesPerActivate::640-767          300      0.08%     99.48% # Bytes accessed per row activation (Byte)
system.mem_ctrls.dram.bytesPerActivate::768-895          458      0.13%     99.60% # Bytes accessed per row activation (Byte)
system.mem_ctrls.dram.bytesPerActivate::896-1023          196      0.05%     99.66% # Bytes accessed per row activation (Byte)
system.mem_ctrls.dram.bytesPerActivate::1024-1151         1235      0.34%    100.00% # Bytes accessed per row activation (Byte)
system.mem_ctrls.dram.bytesPerActivate::total       360784                       # Bytes accessed per row activation (Byte)
system.mem_ctrls.dram.bytesRead              56974272                       # Total bytes read (Byte)
system.mem_ctrls.dram.bytesWritten            1295168                       # Total bytes written (Byte)
system.mem_ctrls.dram.avgRdBW              442.317613                       # Average DRAM read bandwidth in MiBytes/s ((Byte/Second))
system.mem_ctrls.dram.avgWrBW               10.054988                       # Average DRAM write bandwidth in MiBytes/s ((Byte/Second))
system.mem_ctrls.dram.peakBW                 12800.00                       # Theoretical peak bandwidth in MiByte/s ((Byte/Second))
system.mem_ctrls.dram.busUtil                    3.53                       # Data bus utilization in percentage (Ratio)
system.mem_ctrls.dram.busUtilRead                3.46                       # Data bus utilization in percentage for reads (Ratio)
system.mem_ctrls.dram.busUtilWrite               0.08                       # Data bus utilization in percentage for writes (Ratio)
system.mem_ctrls.dram.pageHitRate               60.37                       # Row buffer hit rate, read and write combined (Ratio)
system.mem_ctrls.dram.power_state.pwrStateResidencyTicks::UNDEFINED 128808508500                       # Cumulative time (in ticks) in various power states (Tick)
system.mem_ctrls.dram.rank0.actEnergy      1337828940                       # Energy for activate commands per rank (pJ) (Joule)
system.mem_ctrls.dram.rank0.preEnergy       711069150                       # Energy for precharge commands per rank (pJ) (Joule)
system.mem_ctrls.dram.rank0.readEnergy     3318043680                       # Energy for read commands per rank (pJ) (Joule)
system.mem_ctrls.dram.rank0.writeEnergy      55624320                       # Energy for write commands per rank (pJ) (Joule)
system.mem_ctrls.dram.rank0.refreshEnergy 10167989520.000002                       # Energy for refresh commands per rank (pJ) (Joule)
system.mem_ctrls.dram.rank0.actBackEnergy  45871117650                       # Energy for active background per rank (pJ) (Joule)
system.mem_ctrls.dram.rank0.preBackEnergy  10834157760                       # Energy for precharge background per rank (pJ) (Joule)
system.mem_ctrls.dram.rank0.actPowerDownEnergy            0                       # Energy for active power-down per rank (pJ) (Joule)
system.mem_ctrls.dram.rank0.prePowerDownEnergy            0                       # Energy for precharge power-down per rank (pJ) (Joule)
system.mem_ctrls.dram.rank0.selfRefreshEnergy            0                       # Energy for self refresh per rank (pJ) (Joule)
system.mem_ctrls.dram.rank0.totalEnergy   72295831020                       # Total energy per rank (pJ) (Joule)
system.mem_ctrls.dram.rank0.averagePower   561.265959                       # Core power per rank (mW) (Watt)
system.mem_ctrls.dram.rank0.totalIdleTime            0                       # Total Idle time Per DRAM Rank (Tick)
system.mem_ctrls.dram.rank0.pwrStateTime::IDLE  27761738250                       # Time in different power states (Tick)
system.mem_ctrls.dram.rank0.pwrStateTime::REF   4301180000                       # Time in different power states (Tick)
system.mem_ctrls.dram.rank0.pwrStateTime::SREF            0                       # Time in different power states (Tick)
system.mem_ctrls.dram.rank0.pwrStateTime::PRE_PDN            0                       # Time in different power states (Tick)
system.mem_ctrls.dram.rank0.pwrStateTime::ACT  96745590250                       # Time in different power states (Tick)
system.mem_ctrls.dram.rank0.pwrStateTime::ACT_PDN            0                       # Time in different power states (Tick)
system.mem_ctrls.dram.rank1.actEnergy      1238183100                       # Energy for activate commands per rank (pJ) (Joule)
system.mem_ctrls.dram.rank1.preEnergy       658106130                       # Energy for precharge commands per rank (pJ) (Joule)
system.mem_ctrls.dram.rank1.readEnergy     3038148540                       # Energy for read commands per rank (pJ) (Joule)
system.mem_ctrls.dram.rank1.writeEnergy      50012820                       # Energy for write commands per rank (pJ) (Joule)
system.mem_ctrls.dram.rank1.refreshEnergy 10167989520.000002                       # Energy for refresh commands per rank (pJ) (Joule)
system.mem_ctrls.dram.rank1.actBackEnergy  44194543590                       # Energy for active background per rank (pJ) (Joule)
system.mem_ctrls.dram.rank1.preBackEnergy  12246009600                       # Energy for precharge background per rank (pJ) (Joule)
system.mem_ctrls.dram.rank1.actPowerDownEnergy            0                       # Energy for active power-down per rank (pJ) (Joule)
system.mem_ctrls.dram.rank1.prePowerDownEnergy            0                       # Energy for precharge power-down per rank (pJ) (Joule)
system.mem_ctrls.dram.rank1.selfRefreshEnergy            0                       # Energy for self refresh per rank (pJ) (Joule)
system.mem_ctrls.dram.rank1.totalEnergy   71592993300                       # Total energy per rank (pJ) (Joule)
system.mem_ctrls.dram.rank1.averagePower   555.809505                       # Core power per rank (mW) (Watt)
system.mem_ctrls.dram.rank1.totalIdleTime            0                       # Total Idle time Per DRAM Rank (Tick)
system.mem_ctrls.dram.rank1.pwrStateTime::IDLE  31438804250                       # Time in different power states (Tick)
system.mem_ctrls.dram.rank1.pwrStateTime::REF   4301180000                       # Time in different power states (Tick)
system.mem_ctrls.dram.rank1.pwrStateTime::SREF            0                       # Time in different power states (Tick)
system.mem_ctrls.dram.rank1.pwrStateTime::PRE_PDN            0                       # Time in different power states (Tick)
system.mem_ctrls.dram.rank1.pwrStateTime::ACT  93068524250                       # Time in different power states (Tick)
system.mem_ctrls.dram.rank1.pwrStateTime::ACT_PDN            0                       # Time in different power states (Tick)
system.mem_ctrls.power_state.pwrStateResidencyTicks::UNDEFINED 128808508500                       # Cumulative time (in ticks) in various power states (Tick)
system.membus.transDist::ReadResp              869590                       # Transaction distribution (Count)
system.membus.transDist::WritebackDirty         20267                       # Transaction distribution (Count)
system.membus.transDist::CleanEvict            864934                       # Transaction distribution (Count)
system.membus.transDist::ReadExReq              20686                       # Transaction distribution (Count)
system.membus.transDist::ReadExResp             20686                       # Transaction distribution (Count)
system.membus.transDist::ReadSharedReq         869590                       # Transaction distribution (Count)
system.membus.pktCount_system.l2.mem_side_port::system.mem_ctrls.port      2665753                       # Packet count per connected requestor and responder (Count)
system.membus.pktCount_system.l2.mem_side_port::total      2665753                       # Packet count per connected requestor and responder (Count)
system.membus.pktCount::total                 2665753                       # Packet count per connected requestor and responder (Count)
system.membus.pktSize_system.l2.mem_side_port::system.mem_ctrls.port     58274752                       # Cumulative packet size per connected requestor and responder (Byte)
system.membus.pktSize_system.l2.mem_side_port::total     58274752                       # Cumulative packet size per connected requestor and responder (Byte)
system.membus.pktSize::total                 58274752                       # Cumulative packet size per connected requestor and responder (Byte)
system.membus.snoops                                0                       # Total snoops (Count)
system.membus.snoopTraffic                          0                       # Total snoop traffic (Byte)
system.membus.snoopFanout::samples             890276                       # Request fanout histogram (Count)
system.membus.snoopFanout::mean                     0                       # Request fanout histogram (Count)
system.membus.snoopFanout::stdev                    0                       # Request fanout histogram (Count)
system.membus.snoopFanout::underflows               0      0.00%      0.00% # Request fanout histogram (Count)
system.membus.snoopFanout::0                   890276    100.00%    100.00% # Request fanout histogram (Count)
system.membus.snoopFanout::1                        0      0.00%    100.00% # Request fanout histogram (Count)
system.membus.snoopFanout::overflows                0      0.00%    100.00% # Request fanout histogram (Count)
system.membus.snoopFanout::min_value                0                       # Request fanout histogram (Count)
system.membus.snoopFanout::max_value                0                       # Request fanout histogram (Count)
system.membus.snoopFanout::total               890276                       # Request fanout histogram (Count)
system.membus.power_state.pwrStateResidencyTicks::UNDEFINED 128808508500                       # Cumulative time (in ticks) in various power states (Tick)
system.membus.reqLayer4.occupancy          1914885000                       # Layer occupancy (ticks) (Tick)
system.membus.reqLayer4.utilization               0.0                       # Layer utilization (Ratio)
system.membus.respLayer1.occupancy         4809240000                       # Layer occupancy (ticks) (Tick)
system.membus.respLayer1.utilization              0.0                       # Layer utilization (Ratio)
system.membus.snoop_filter.totRequests        1775477                       # Total number of requests made to the snoop filter. (Count)
system.membus.snoop_filter.hitSingleRequests       885201                       # Number of requests hitting in the snoop filter with a single holder of the requested data. (Count)
system.membus.snoop_filter.hitMultiRequests            0                       # Number of requests hitting in the snoop filter with multiple (>1) holders of the requested data. (Count)
system.membus.snoop_filter.totSnoops                0                       # Total number of snoops made to the snoop filter. (Count)
system.membus.snoop_filter.hitSingleSnoops            0                       # Number of snoops hitting in the snoop filter with a single holder of the requested data. (Count)
system.membus.snoop_filter.hitMultiSnoops            0                       # Number of snoops hitting in the snoop filter with multiple (>1) holders of the requested data. (Count)
system.tol2bus.transDist::ReadResp            1816801                       # Transaction distribution (Count)
system.tol2bus.transDist::WritebackDirty        72197                       # Transaction distribution (Count)
system.tol2bus.transDist::WritebackClean          662                       # Transaction distribution (Count)
system.tol2bus.transDist::CleanEvict          2667931                       # Transaction distribution (Count)
system.tol2bus.transDist::ReadExReq             38424                       # Transaction distribution (Count)
system.tol2bus.transDist::ReadExResp            38424                       # Transaction distribution (Count)
system.tol2bus.transDist::ReadCleanReq           1612                       # Transaction distribution (Count)
system.tol2bus.transDist::ReadSharedReq       1815189                       # Transaction distribution (Count)
system.tol2bus.pktCount_system.cpu0.icache.mem_side_port::system.l2.cpu_side_port         1943                       # Packet count per connected requestor and responder (Count)
system.tol2bus.pktCount_system.cpu0.dcache.mem_side_port::system.l2.cpu_side_port      1870795                       # Packet count per connected requestor and responder (Count)
system.tol2bus.pktCount_system.cpu1.icache.mem_side_port::system.l2.cpu_side_port         1943                       # Packet count per connected requestor and responder (Count)
system.tol2bus.pktCount_system.cpu1.dcache.mem_side_port::system.l2.cpu_side_port      3689020                       # Packet count per connected requestor and responder (Count)
system.tol2bus.pktCount::total                5563701                       # Packet count per connected requestor and responder (Count)
system.tol2bus.pktSize_system.cpu0.icache.mem_side_port::system.l2.cpu_side_port        72768                       # Cumulative packet size per connected requestor and responder (Byte)
system.tol2bus.pktSize_system.cpu0.dcache.mem_side_port::system.l2.cpu_side_port     41317952                       # Cumulative packet size per connected requestor and responder (Byte)
system.tol2bus.pktSize_system.cpu1.icache.mem_side_port::system.l2.cpu_side_port        72768                       # Cumulative packet size per connected requestor and responder (Byte)
system.tol2bus.pktSize_system.cpu1.dcache.mem_side_port::system.l2.cpu_side_port     80636800                       # Cumulative packet size per connected requestor and responder (Byte)
system.tol2bus.pktSize::total               122100288                       # Cumulative packet size per connected requestor and responder (Byte)
system.tol2bus.snoops                          887539                       # Total snoops (Count)
system.tol2bus.snoopTraffic                   1297088                       # Total snoop traffic (Byte)
system.tol2bus.snoopFanout::samples           2742764                       # Request fanout histogram (Count)
system.tol2bus.snoopFanout::mean             0.004564                       # Request fanout histogram (Count)
system.tol2bus.snoopFanout::stdev            0.067403                       # Request fanout histogram (Count)
system.tol2bus.snoopFanout::underflows              0      0.00%      0.00% # Request fanout histogram (Count)
system.tol2bus.snoopFanout::0                 2730246     99.54%     99.54% # Request fanout histogram (Count)
system.tol2bus.snoopFanout::1                   12518      0.46%    100.00% # Request fanout histogram (Count)
system.tol2bus.snoopFanout::2                       0      0.00%    100.00% # Request fanout histogram (Count)
system.tol2bus.snoopFanout::3                       0      0.00%    100.00% # Request fanout histogram (Count)
system.tol2bus.snoopFanout::4                       0      0.00%    100.00% # Request fanout histogram (Count)
system.tol2bus.snoopFanout::5                       0      0.00%    100.00% # Request fanout histogram (Count)
system.tol2bus.snoopFanout::6                       0      0.00%    100.00% # Request fanout histogram (Count)
system.tol2bus.snoopFanout::7                       0      0.00%    100.00% # Request fanout histogram (Count)
system.tol2bus.snoopFanout::8                       0      0.00%    100.00% # Request fanout histogram (Count)
system.tol2bus.snoopFanout::overflows               0      0.00%    100.00% # Request fanout histogram (Count)
system.tol2bus.snoopFanout::min_value               0                       # Request fanout histogram (Count)
system.tol2bus.snoopFanout::max_value               1                       # Request fanout histogram (Count)
system.tol2bus.snoopFanout::total             2742764                       # Request fanout histogram (Count)
system.tol2bus.power_state.pwrStateResidencyTicks::UNDEFINED 128808508500                       # Cumulative time (in ticks) in various power states (Tick)
system.tol2bus.reqLayer0.occupancy         1906830000                       # Layer occupancy (ticks) (Tick)
system.tol2bus.reqLayer0.utilization              0.0                       # Layer utilization (Ratio)
system.tol2bus.respLayer0.occupancy           1209000                       # Layer occupancy (ticks) (Tick)
system.tol2bus.respLayer0.utilization             0.0                       # Layer utilization (Ratio)
system.tol2bus.respLayer1.occupancy         937117566                       # Layer occupancy (ticks) (Tick)
system.tol2bus.respLayer1.utilization             0.0                       # Layer utilization (Ratio)
system.tol2bus.respLayer4.occupancy           1209000                       # Layer occupancy (ticks) (Tick)
system.tol2bus.respLayer4.utilization             0.0                       # Layer utilization (Ratio)
system.tol2bus.respLayer5.occupancy        1845129272                       # Layer occupancy (ticks) (Tick)
system.tol2bus.respLayer5.utilization             0.0                       # Layer utilization (Ratio)
system.tol2bus.snoop_filter.totRequests       3708476                       # Total number of requests made to the snoop filter. (Count)
system.tol2bus.snoop_filter.hitSingleRequests      1853251                       # Number of requests hitting in the snoop filter with a single holder of the requested data. (Count)
system.tol2bus.snoop_filter.hitMultiRequests            0                       # Number of requests hitting in the snoop filter with multiple (>1) holders of the requested data. (Count)
system.tol2bus.snoop_filter.totSnoops           12518                       # Total number of snoops made to the snoop filter. (Count)
system.tol2bus.snoop_filter.hitSingleSnoops        12518                       # Number of snoops hitting in the snoop filter with a single holder of the requested data. (Count)
system.tol2bus.snoop_filter.hitMultiSnoops            0                       # Number of snoops hitting in the snoop filter with multiple (>1) holders of the requested data. (Count)
system.voltage_domain.voltage                       1                       # Voltage in Volts (Volt)
system.workload.inst.arm                            0                       # number of arm instructions executed (Count)
system.workload.inst.quiesce                        0                       # number of quiesce instructions executed (Count)

---------- End Simulation Statistics   ----------
