
---------- Begin Simulation Statistics ----------
simSeconds                                   0.002415                       # Number of seconds simulated (Second)
simTicks                                   2415004500                       # Number of ticks simulated (Tick)
finalTick                                  2415004500                       # Number of ticks from beginning of simulation (restored from checkpoints and never reset) (Tick)
simFreq                                  1000000000000                       # The number of ticks per simulated second ((Tick/Second))
hostSeconds                                      3.20                       # Real time elapsed on the host (Second)
hostTickRate                                753921460                       # The number of ticks simulated per host second (ticks/s) ((Tick/Second))
hostMemory                                    8594752                       # Number of bytes of host memory used (Byte)
simInsts                                      2500846                       # Number of instructions simulated (Count)
simOps                                        4557854                       # Number of ops (including micro ops) simulated (Count)
hostInstRate                                   780693                       # Simulator instruction rate (inst/s) ((Count/Second))
hostOpRate                                    1422829                       # Simulator op (including micro ops) rate (op/s) ((Count/Second))
system.clk_domain.clock                          1000                       # Clock period in ticks (Tick)
system.cpu0.numCycles                         4829891                       # Number of cpu cycles simulated (Cycle)
system.cpu0.cpi                              3.862303                       # CPI: cycles per instruction (core level) ((Cycle/Count))
system.cpu0.ipc                              0.258913                       # IPC: instructions per cycle (core level) ((Count/Cycle))
system.cpu0.numWorkItemsStarted                     0                       # Number of work items this cpu started (Count)
system.cpu0.numWorkItemsCompleted                   0                       # Number of work items this cpu completed (Count)
system.cpu0.commitStats0.numInsts             1250521                       # Number of instructions committed (thread level) (Count)
system.cpu0.commitStats0.numOps               2279066                       # Number of ops (including micro ops) committed (thread level) (Count)
system.cpu0.commitStats0.numInstsNotNOP             0                       # Number of instructions committed excluding NOPs or prefetches (Count)
system.cpu0.commitStats0.numOpsNotNOP               0                       # Number of Ops (including micro ops) Simulated (Count)
system.cpu0.commitStats0.cpi                 3.862303                       # CPI: cycles per instruction (thread level) ((Cycle/Count))
system.cpu0.commitStats0.ipc                 0.258913                       # IPC: instructions per cycle (thread level) ((Count/Cycle))
system.cpu0.commitStats0.numMemRefs                 0                       # Number of memory references committed (Count)
system.cpu0.commitStats0.numFpInsts              9669                       # Number of float instructions (Count)
system.cpu0.commitStats0.numIntInsts          2270684                       # Number of integer instructions (Count)
system.cpu0.commitStats0.numLoadInsts          187123                       # Number of load instructions (Count)
system.cpu0.commitStats0.numStoreInsts          73136                       # Number of store instructions (Count)
system.cpu0.commitStats0.numVecInsts                0                       # Number of vector instructions (Count)
system.cpu0.commitStats0.committedInstType::No_OpClass         2644      0.12%      0.12% # Class of committed instruction. (Count)
system.cpu0.commitStats0.committedInstType::IntAlu      1928871     84.63%     84.75% # Class of committed instruction. (Count)
system.cpu0.commitStats0.committedInstType::IntMult        80324      3.52%     88.27% # Class of committed instruction. (Count)
system.cpu0.commitStats0.committedInstType::IntDiv         1515      0.07%     88.34% # Class of committed instruction. (Count)
system.cpu0.commitStats0.committedInstType::FloatAdd          808      0.04%     88.38% # Class of committed instruction. (Count)
system.cpu0.commitStats0.committedInstType::FloatCmp            0      0.00%     88.38% # Class of committed instruction. (Count)
system.cpu0.commitStats0.committedInstType::FloatCvt            0      0.00%     88.38% # Class of committed instruction. (Count)
system.cpu0.commitStats0.committedInstType::FloatMult            0      0.00%     88.38% # Class of committed instruction. (Count)
system.cpu0.commitStats0.committedInstType::FloatMultAcc            0      0.00%     88.38% # Class of committed instruction. (Count)
system.cpu0.commitStats0.committedInstType::FloatDiv            0      0.00%     88.38% # Class of committed instruction. (Count)
system.cpu0.commitStats0.committedInstType::FloatMisc            0      0.00%     88.38% # Class of committed instruction. (Count)
system.cpu0.commitStats0.committedInstType::FloatSqrt            0      0.00%     88.38% # Class of committed instruction. (Count)
system.cpu0.commitStats0.committedInstType::SimdAdd          434      0.02%     88.40% # Class of committed instruction. (Count)
system.cpu0.commitStats0.committedInstType::SimdAddAcc            0      0.00%     88.40% # Class of committed instruction. (Count)
system.cpu0.commitStats0.committedInstType::SimdAlu         1339      0.06%     88.45% # Class of committed instruction. (Count)
system.cpu0.commitStats0.committedInstType::SimdCmp            2      0.00%     88.45% # Class of committed instruction. (Count)
system.cpu0.commitStats0.committedInstType::SimdCvt         1008      0.04%     88.50% # Class of committed instruction. (Count)
system.cpu0.commitStats0.committedInstType::SimdMisc         1631      0.07%     88.57% # Class of committed instruction. (Count)
system.cpu0.commitStats0.committedInstType::SimdMult            0      0.00%     88.57% # Class of committed instruction. (Count)
system.cpu0.commitStats0.committedInstType::SimdMultAcc            0      0.00%     88.57% # Class of committed instruction. (Count)
system.cpu0.commitStats0.committedInstType::SimdMatMultAcc            0      0.00%     88.57% # Class of committed instruction. (Count)
system.cpu0.commitStats0.committedInstType::SimdShift          231      0.01%     88.58% # Class of committed instruction. (Count)
system.cpu0.commitStats0.committedInstType::SimdShiftAcc            0      0.00%     88.58% # Class of committed instruction. (Count)
system.cpu0.commitStats0.committedInstType::SimdDiv            0      0.00%     88.58% # Class of committed instruction. (Count)
system.cpu0.commitStats0.committedInstType::SimdSqrt            0      0.00%     88.58% # Class of committed instruction. (Count)
system.cpu0.commitStats0.committedInstType::SimdFloatAdd            0      0.00%     88.58% # Class of committed instruction. (Count)
system.cpu0.commitStats0.committedInstType::SimdFloatAlu            0      0.00%     88.58% # Class of committed instruction. (Count)
system.cpu0.commitStats0.committedInstType::SimdFloatCmp            0      0.00%     88.58% # Class of committed instruction. (Count)
system.cpu0.commitStats0.committedInstType::SimdFloatCvt            0      0.00%     88.58% # Class of committed instruction. (Count)
system.cpu0.commitStats0.committedInstType::SimdFloatDiv            0      0.00%     88.58% # Class of committed instruction. (Count)
system.cpu0.commitStats0.committedInstType::SimdFloatMisc            0      0.00%     88.58% # Class of committed instruction. (Count)
system.cpu0.commitStats0.committedInstType::SimdFloatMult            0      0.00%     88.58% # Class of committed instruction. (Count)
system.cpu0.commitStats0.committedInstType::SimdFloatMultAcc            0      0.00%     88.58% # Class of committed instruction. (Count)
system.cpu0.commitStats0.committedInstType::SimdFloatMatMultAcc            0      0.00%     88.58% # Class of committed instruction. (Count)
system.cpu0.commitStats0.committedInstType::SimdFloatSqrt            0      0.00%     88.58% # Class of committed instruction. (Count)
system.cpu0.commitStats0.committedInstType::SimdReduceAdd            0      0.00%     88.58% # Class of committed instruction. (Count)
system.cpu0.commitStats0.committedInstType::SimdReduceAlu            0      0.00%     88.58% # Class of committed instruction. (Count)
system.cpu0.commitStats0.committedInstType::SimdReduceCmp            0      0.00%     88.58% # Class of committed instruction. (Count)
system.cpu0.commitStats0.committedInstType::SimdFloatReduceAdd            0      0.00%     88.58% # Class of committed instruction. (Count)
system.cpu0.commitStats0.committedInstType::SimdFloatReduceCmp            0      0.00%     88.58% # Class of committed instruction. (Count)
system.cpu0.commitStats0.committedInstType::SimdAes            0      0.00%     88.58% # Class of committed instruction. (Count)
system.cpu0.commitStats0.committedInstType::SimdAesMix            0      0.00%     88.58% # Class of committed instruction. (Count)
system.cpu0.commitStats0.committedInstType::SimdSha1Hash            0      0.00%     88.58% # Class of committed instruction. (Count)
system.cpu0.commitStats0.committedInstType::SimdSha1Hash2            0      0.00%     88.58% # Class of committed instruction. (Count)
system.cpu0.commitStats0.committedInstType::SimdSha256Hash            0      0.00%     88.58% # Class of committed instruction. (Count)
system.cpu0.commitStats0.committedInstType::SimdSha256Hash2            0      0.00%     88.58% # Class of committed instruction. (Count)
system.cpu0.commitStats0.committedInstType::SimdShaSigma2            0      0.00%     88.58% # Class of committed instruction. (Count)
system.cpu0.commitStats0.committedInstType::SimdShaSigma3            0      0.00%     88.58% # Class of committed instruction. (Count)
system.cpu0.commitStats0.committedInstType::SimdPredAlu            0      0.00%     88.58% # Class of committed instruction. (Count)
system.cpu0.commitStats0.committedInstType::Matrix            0      0.00%     88.58% # Class of committed instruction. (Count)
system.cpu0.commitStats0.committedInstType::MatrixMov            0      0.00%     88.58% # Class of committed instruction. (Count)
system.cpu0.commitStats0.committedInstType::MatrixOP            0      0.00%     88.58% # Class of committed instruction. (Count)
system.cpu0.commitStats0.committedInstType::MemRead       185637      8.15%     96.73% # Class of committed instruction. (Count)
system.cpu0.commitStats0.committedInstType::MemWrite        70977      3.11%     99.84% # Class of committed instruction. (Count)
system.cpu0.commitStats0.committedInstType::FloatMemRead         1486      0.07%     99.91% # Class of committed instruction. (Count)
system.cpu0.commitStats0.committedInstType::FloatMemWrite         2159      0.09%    100.00% # Class of committed instruction. (Count)
system.cpu0.commitStats0.committedInstType::IprAccess            0      0.00%    100.00% # Class of committed instruction. (Count)
system.cpu0.commitStats0.committedInstType::InstPrefetch            0      0.00%    100.00% # Class of committed instruction. (Count)
system.cpu0.commitStats0.committedInstType::VectorUnitStrideLoad            0      0.00%    100.00% # Class of committed instruction. (Count)
system.cpu0.commitStats0.committedInstType::VectorUnitStrideStore            0      0.00%    100.00% # Class of committed instruction. (Count)
system.cpu0.commitStats0.committedInstType::VectorUnitStrideMaskLoad            0      0.00%    100.00% # Class of committed instruction. (Count)
system.cpu0.commitStats0.committedInstType::VectorUnitStrideMaskStore            0      0.00%    100.00% # Class of committed instruction. (Count)
system.cpu0.commitStats0.committedInstType::VectorStridedLoad            0      0.00%    100.00% # Class of committed instruction. (Count)
system.cpu0.commitStats0.committedInstType::VectorStridedStore            0      0.00%    100.00% # Class of committed instruction. (Count)
system.cpu0.commitStats0.committedInstType::VectorIndexedLoad            0      0.00%    100.00% # Class of committed instruction. (Count)
system.cpu0.commitStats0.committedInstType::VectorIndexedStore            0      0.00%    100.00% # Class of committed instruction. (Count)
system.cpu0.commitStats0.committedInstType::VectorUnitStrideFaultOnlyFirstLoad            0      0.00%    100.00% # Class of committed instruction. (Count)
system.cpu0.commitStats0.committedInstType::VectorWholeRegisterLoad            0      0.00%    100.00% # Class of committed instruction. (Count)
system.cpu0.commitStats0.committedInstType::VectorWholeRegisterStore            0      0.00%    100.00% # Class of committed instruction. (Count)
system.cpu0.commitStats0.committedInstType::VectorIntegerArith            0      0.00%    100.00% # Class of committed instruction. (Count)
system.cpu0.commitStats0.committedInstType::VectorFloatArith            0      0.00%    100.00% # Class of committed instruction. (Count)
system.cpu0.commitStats0.committedInstType::VectorFloatConvert            0      0.00%    100.00% # Class of committed instruction. (Count)
system.cpu0.commitStats0.committedInstType::VectorIntegerReduce            0      0.00%    100.00% # Class of committed instruction. (Count)
system.cpu0.commitStats0.committedInstType::VectorFloatReduce            0      0.00%    100.00% # Class of committed instruction. (Count)
system.cpu0.commitStats0.committedInstType::VectorMisc            0      0.00%    100.00% # Class of committed instruction. (Count)
system.cpu0.commitStats0.committedInstType::VectorIntegerExtension            0      0.00%    100.00% # Class of committed instruction. (Count)
system.cpu0.commitStats0.committedInstType::VectorConfig            0      0.00%    100.00% # Class of committed instruction. (Count)
system.cpu0.commitStats0.committedInstType::total      2279066                       # Class of committed instruction. (Count)
system.cpu0.commitStats0.committedControl::IsControl       259146                       # Class of control type instructions committed (Count)
system.cpu0.commitStats0.committedControl::IsDirectControl       255690                       # Class of control type instructions committed (Count)
system.cpu0.commitStats0.committedControl::IsIndirectControl         3414                       # Class of control type instructions committed (Count)
system.cpu0.commitStats0.committedControl::IsCondControl       249236                       # Class of control type instructions committed (Count)
system.cpu0.commitStats0.committedControl::IsUncondControl         9868                       # Class of control type instructions committed (Count)
system.cpu0.commitStats0.committedControl::IsCall         2646                       # Class of control type instructions committed (Count)
system.cpu0.commitStats0.committedControl::IsReturn         2641                       # Class of control type instructions committed (Count)
system.cpu0.dcache.demandHits::cpu0.data       252605                       # number of demand (read+write) hits (Count)
system.cpu0.dcache.demandHits::total           252605                       # number of demand (read+write) hits (Count)
system.cpu0.dcache.overallHits::cpu0.data       252605                       # number of overall hits (Count)
system.cpu0.dcache.overallHits::total          252605                       # number of overall hits (Count)
system.cpu0.dcache.demandMisses::cpu0.data         7529                       # number of demand (read+write) misses (Count)
system.cpu0.dcache.demandMisses::total           7529                       # number of demand (read+write) misses (Count)
system.cpu0.dcache.overallMisses::cpu0.data         7529                       # number of overall misses (Count)
system.cpu0.dcache.overallMisses::total          7529                       # number of overall misses (Count)
system.cpu0.dcache.demandMissLatency::cpu0.data    475579000                       # number of demand (read+write) miss ticks (Tick)
system.cpu0.dcache.demandMissLatency::total    475579000                       # number of demand (read+write) miss ticks (Tick)
system.cpu0.dcache.overallMissLatency::cpu0.data    475579000                       # number of overall miss ticks (Tick)
system.cpu0.dcache.overallMissLatency::total    475579000                       # number of overall miss ticks (Tick)
system.cpu0.dcache.demandAccesses::cpu0.data       260134                       # number of demand (read+write) accesses (Count)
system.cpu0.dcache.demandAccesses::total       260134                       # number of demand (read+write) accesses (Count)
system.cpu0.dcache.overallAccesses::cpu0.data       260134                       # number of overall (read+write) accesses (Count)
system.cpu0.dcache.overallAccesses::total       260134                       # number of overall (read+write) accesses (Count)
system.cpu0.dcache.demandMissRate::cpu0.data     0.028943                       # miss rate for demand accesses (Ratio)
system.cpu0.dcache.demandMissRate::total     0.028943                       # miss rate for demand accesses (Ratio)
system.cpu0.dcache.overallMissRate::cpu0.data     0.028943                       # miss rate for overall accesses (Ratio)
system.cpu0.dcache.overallMissRate::total     0.028943                       # miss rate for overall accesses (Ratio)
system.cpu0.dcache.demandAvgMissLatency::cpu0.data 63166.290344                       # average overall miss latency in ticks ((Tick/Count))
system.cpu0.dcache.demandAvgMissLatency::total 63166.290344                       # average overall miss latency in ticks ((Tick/Count))
system.cpu0.dcache.overallAvgMissLatency::cpu0.data 63166.290344                       # average overall miss latency ((Tick/Count))
system.cpu0.dcache.overallAvgMissLatency::total 63166.290344                       # average overall miss latency ((Tick/Count))
system.cpu0.dcache.blockedCycles::no_mshrs            0                       # number of cycles access was blocked (Cycle)
system.cpu0.dcache.blockedCycles::no_targets            0                       # number of cycles access was blocked (Cycle)
system.cpu0.dcache.blockedCauses::no_mshrs            0                       # number of times access was blocked (Count)
system.cpu0.dcache.blockedCauses::no_targets            0                       # number of times access was blocked (Count)
system.cpu0.dcache.avgBlocked::no_mshrs           nan                       # average number of cycles each access was blocked ((Cycle/Count))
system.cpu0.dcache.avgBlocked::no_targets          nan                       # average number of cycles each access was blocked ((Cycle/Count))
system.cpu0.dcache.writebacks::writebacks         4846                       # number of writebacks (Count)
system.cpu0.dcache.writebacks::total             4846                       # number of writebacks (Count)
system.cpu0.dcache.demandMshrMisses::cpu0.data         7529                       # number of demand (read+write) MSHR misses (Count)
system.cpu0.dcache.demandMshrMisses::total         7529                       # number of demand (read+write) MSHR misses (Count)
system.cpu0.dcache.overallMshrMisses::cpu0.data         7529                       # number of overall MSHR misses (Count)
system.cpu0.dcache.overallMshrMisses::total         7529                       # number of overall MSHR misses (Count)
system.cpu0.dcache.demandMshrMissLatency::cpu0.data    468050000                       # number of demand (read+write) MSHR miss ticks (Tick)
system.cpu0.dcache.demandMshrMissLatency::total    468050000                       # number of demand (read+write) MSHR miss ticks (Tick)
system.cpu0.dcache.overallMshrMissLatency::cpu0.data    468050000                       # number of overall MSHR miss ticks (Tick)
system.cpu0.dcache.overallMshrMissLatency::total    468050000                       # number of overall MSHR miss ticks (Tick)
system.cpu0.dcache.demandMshrMissRate::cpu0.data     0.028943                       # mshr miss ratio for demand accesses (Ratio)
system.cpu0.dcache.demandMshrMissRate::total     0.028943                       # mshr miss ratio for demand accesses (Ratio)
system.cpu0.dcache.overallMshrMissRate::cpu0.data     0.028943                       # mshr miss ratio for overall accesses (Ratio)
system.cpu0.dcache.overallMshrMissRate::total     0.028943                       # mshr miss ratio for overall accesses (Ratio)
system.cpu0.dcache.demandAvgMshrMissLatency::cpu0.data 62166.290344                       # average overall mshr miss latency ((Tick/Count))
system.cpu0.dcache.demandAvgMshrMissLatency::total 62166.290344                       # average overall mshr miss latency ((Tick/Count))
system.cpu0.dcache.overallAvgMshrMissLatency::cpu0.data 62166.290344                       # average overall mshr miss latency ((Tick/Count))
system.cpu0.dcache.overallAvgMshrMissLatency::total 62166.290344                       # average overall mshr miss latency ((Tick/Count))
system.cpu0.dcache.replacements                  7061                       # number of replacements (Count)
system.cpu0.dcache.LockedRMWReadReq.hits::cpu0.data            9                       # number of LockedRMWReadReq hits (Count)
system.cpu0.dcache.LockedRMWReadReq.hits::total            9                       # number of LockedRMWReadReq hits (Count)
system.cpu0.dcache.LockedRMWReadReq.misses::cpu0.data            3                       # number of LockedRMWReadReq misses (Count)
system.cpu0.dcache.LockedRMWReadReq.misses::total            3                       # number of LockedRMWReadReq misses (Count)
system.cpu0.dcache.LockedRMWReadReq.missLatency::cpu0.data       261000                       # number of LockedRMWReadReq miss ticks (Tick)
system.cpu0.dcache.LockedRMWReadReq.missLatency::total       261000                       # number of LockedRMWReadReq miss ticks (Tick)
system.cpu0.dcache.LockedRMWReadReq.accesses::cpu0.data           12                       # number of LockedRMWReadReq accesses(hits+misses) (Count)
system.cpu0.dcache.LockedRMWReadReq.accesses::total           12                       # number of LockedRMWReadReq accesses(hits+misses) (Count)
system.cpu0.dcache.LockedRMWReadReq.missRate::cpu0.data     0.250000                       # miss rate for LockedRMWReadReq accesses (Ratio)
system.cpu0.dcache.LockedRMWReadReq.missRate::total     0.250000                       # miss rate for LockedRMWReadReq accesses (Ratio)
system.cpu0.dcache.LockedRMWReadReq.avgMissLatency::cpu0.data        87000                       # average LockedRMWReadReq miss latency ((Tick/Count))
system.cpu0.dcache.LockedRMWReadReq.avgMissLatency::total        87000                       # average LockedRMWReadReq miss latency ((Tick/Count))
system.cpu0.dcache.LockedRMWReadReq.mshrMisses::cpu0.data            3                       # number of LockedRMWReadReq MSHR misses (Count)
system.cpu0.dcache.LockedRMWReadReq.mshrMisses::total            3                       # number of LockedRMWReadReq MSHR misses (Count)
system.cpu0.dcache.LockedRMWReadReq.mshrMissLatency::cpu0.data       528000                       # number of LockedRMWReadReq MSHR miss ticks (Tick)
system.cpu0.dcache.LockedRMWReadReq.mshrMissLatency::total       528000                       # number of LockedRMWReadReq MSHR miss ticks (Tick)
system.cpu0.dcache.LockedRMWReadReq.mshrMissRate::cpu0.data     0.250000                       # mshr miss rate for LockedRMWReadReq accesses (Ratio)
system.cpu0.dcache.LockedRMWReadReq.mshrMissRate::total     0.250000                       # mshr miss rate for LockedRMWReadReq accesses (Ratio)
system.cpu0.dcache.LockedRMWReadReq.avgMshrMissLatency::cpu0.data       176000                       # average LockedRMWReadReq mshr miss latency ((Tick/Count))
system.cpu0.dcache.LockedRMWReadReq.avgMshrMissLatency::total       176000                       # average LockedRMWReadReq mshr miss latency ((Tick/Count))
system.cpu0.dcache.LockedRMWWriteReq.hits::cpu0.data           12                       # number of LockedRMWWriteReq hits (Count)
system.cpu0.dcache.LockedRMWWriteReq.hits::total           12                       # number of LockedRMWWriteReq hits (Count)
system.cpu0.dcache.LockedRMWWriteReq.accesses::cpu0.data           12                       # number of LockedRMWWriteReq accesses(hits+misses) (Count)
system.cpu0.dcache.LockedRMWWriteReq.accesses::total           12                       # number of LockedRMWWriteReq accesses(hits+misses) (Count)
system.cpu0.dcache.ReadReq.hits::cpu0.data       182538                       # number of ReadReq hits (Count)
system.cpu0.dcache.ReadReq.hits::total         182538                       # number of ReadReq hits (Count)
system.cpu0.dcache.ReadReq.misses::cpu0.data         4524                       # number of ReadReq misses (Count)
system.cpu0.dcache.ReadReq.misses::total         4524                       # number of ReadReq misses (Count)
system.cpu0.dcache.ReadReq.missLatency::cpu0.data    239089500                       # number of ReadReq miss ticks (Tick)
system.cpu0.dcache.ReadReq.missLatency::total    239089500                       # number of ReadReq miss ticks (Tick)
system.cpu0.dcache.ReadReq.accesses::cpu0.data       187062                       # number of ReadReq accesses(hits+misses) (Count)
system.cpu0.dcache.ReadReq.accesses::total       187062                       # number of ReadReq accesses(hits+misses) (Count)
system.cpu0.dcache.ReadReq.missRate::cpu0.data     0.024184                       # miss rate for ReadReq accesses (Ratio)
system.cpu0.dcache.ReadReq.missRate::total     0.024184                       # miss rate for ReadReq accesses (Ratio)
system.cpu0.dcache.ReadReq.avgMissLatency::cpu0.data 52849.137931                       # average ReadReq miss latency ((Tick/Count))
system.cpu0.dcache.ReadReq.avgMissLatency::total 52849.137931                       # average ReadReq miss latency ((Tick/Count))
system.cpu0.dcache.ReadReq.mshrMisses::cpu0.data         4524                       # number of ReadReq MSHR misses (Count)
system.cpu0.dcache.ReadReq.mshrMisses::total         4524                       # number of ReadReq MSHR misses (Count)
system.cpu0.dcache.ReadReq.mshrMissLatency::cpu0.data    234565500                       # number of ReadReq MSHR miss ticks (Tick)
system.cpu0.dcache.ReadReq.mshrMissLatency::total    234565500                       # number of ReadReq MSHR miss ticks (Tick)
system.cpu0.dcache.ReadReq.mshrMissRate::cpu0.data     0.024184                       # mshr miss rate for ReadReq accesses (Ratio)
system.cpu0.dcache.ReadReq.mshrMissRate::total     0.024184                       # mshr miss rate for ReadReq accesses (Ratio)
system.cpu0.dcache.ReadReq.avgMshrMissLatency::cpu0.data 51849.137931                       # average ReadReq mshr miss latency ((Tick/Count))
system.cpu0.dcache.ReadReq.avgMshrMissLatency::total 51849.137931                       # average ReadReq mshr miss latency ((Tick/Count))
system.cpu0.dcache.WriteReq.hits::cpu0.data        70067                       # number of WriteReq hits (Count)
system.cpu0.dcache.WriteReq.hits::total         70067                       # number of WriteReq hits (Count)
system.cpu0.dcache.WriteReq.misses::cpu0.data         3005                       # number of WriteReq misses (Count)
system.cpu0.dcache.WriteReq.misses::total         3005                       # number of WriteReq misses (Count)
system.cpu0.dcache.WriteReq.missLatency::cpu0.data    236489500                       # number of WriteReq miss ticks (Tick)
system.cpu0.dcache.WriteReq.missLatency::total    236489500                       # number of WriteReq miss ticks (Tick)
system.cpu0.dcache.WriteReq.accesses::cpu0.data        73072                       # number of WriteReq accesses(hits+misses) (Count)
system.cpu0.dcache.WriteReq.accesses::total        73072                       # number of WriteReq accesses(hits+misses) (Count)
system.cpu0.dcache.WriteReq.missRate::cpu0.data     0.041124                       # miss rate for WriteReq accesses (Ratio)
system.cpu0.dcache.WriteReq.missRate::total     0.041124                       # miss rate for WriteReq accesses (Ratio)
system.cpu0.dcache.WriteReq.avgMissLatency::cpu0.data 78698.668885                       # average WriteReq miss latency ((Tick/Count))
system.cpu0.dcache.WriteReq.avgMissLatency::total 78698.668885                       # average WriteReq miss latency ((Tick/Count))
system.cpu0.dcache.WriteReq.mshrMisses::cpu0.data         3005                       # number of WriteReq MSHR misses (Count)
system.cpu0.dcache.WriteReq.mshrMisses::total         3005                       # number of WriteReq MSHR misses (Count)
system.cpu0.dcache.WriteReq.mshrMissLatency::cpu0.data    233484500                       # number of WriteReq MSHR miss ticks (Tick)
system.cpu0.dcache.WriteReq.mshrMissLatency::total    233484500                       # number of WriteReq MSHR miss ticks (Tick)
system.cpu0.dcache.WriteReq.mshrMissRate::cpu0.data     0.041124                       # mshr miss rate for WriteReq accesses (Ratio)
system.cpu0.dcache.WriteReq.mshrMissRate::total     0.041124                       # mshr miss rate for WriteReq accesses (Ratio)
system.cpu0.dcache.WriteReq.avgMshrMissLatency::cpu0.data 77698.668885                       # average WriteReq mshr miss latency ((Tick/Count))
system.cpu0.dcache.WriteReq.avgMshrMissLatency::total 77698.668885                       # average WriteReq mshr miss latency ((Tick/Count))
system.cpu0.dcache.power_state.pwrStateResidencyTicks::UNDEFINED   2415004500                       # Cumulative time (in ticks) in various power states (Tick)
system.cpu0.dcache.tags.tagsInUse          452.215036                       # Average ticks per tags in use ((Tick/Count))
system.cpu0.dcache.tags.totalRefs              260158                       # Total number of references to valid blocks. (Count)
system.cpu0.dcache.tags.sampledRefs              7532                       # Sample count of references to valid blocks. (Count)
system.cpu0.dcache.tags.avgRefs             34.540361                       # Average number of references to valid blocks. ((Count/Count))
system.cpu0.dcache.tags.warmupTick             174500                       # The tick when the warmup percentage was hit. (Tick)
system.cpu0.dcache.tags.occupancies::cpu0.data   452.215036                       # Average occupied blocks per tick, per requestor ((Count/Tick))
system.cpu0.dcache.tags.avgOccs::cpu0.data     0.883232                       # Average percentage of cache occupancy ((Ratio/Tick))
system.cpu0.dcache.tags.avgOccs::total       0.883232                       # Average percentage of cache occupancy ((Ratio/Tick))
system.cpu0.dcache.tags.occupanciesTaskId::1024          471                       # Occupied blocks per task id (Count)
system.cpu0.dcache.tags.ageTaskId_1024::0           26                       # Occupied blocks per task id, per block age (Count)
system.cpu0.dcache.tags.ageTaskId_1024::1          169                       # Occupied blocks per task id, per block age (Count)
system.cpu0.dcache.tags.ageTaskId_1024::2           69                       # Occupied blocks per task id, per block age (Count)
system.cpu0.dcache.tags.ageTaskId_1024::3          207                       # Occupied blocks per task id, per block age (Count)
system.cpu0.dcache.tags.ratioOccsTaskId::1024     0.919922                       # Ratio of occupied blocks and all blocks, per task id (Ratio)
system.cpu0.dcache.tags.tagAccesses            527848                       # Number of tag accesses (Count)
system.cpu0.dcache.tags.dataAccesses           527848                       # Number of data accesses (Count)
system.cpu0.dcache.tags.power_state.pwrStateResidencyTicks::UNDEFINED   2415004500                       # Cumulative time (in ticks) in various power states (Tick)
system.cpu0.dtb_walker_cache.blockedCycles::no_mshrs            0                       # number of cycles access was blocked (Cycle)
system.cpu0.dtb_walker_cache.blockedCycles::no_targets            0                       # number of cycles access was blocked (Cycle)
system.cpu0.dtb_walker_cache.blockedCauses::no_mshrs            0                       # number of times access was blocked (Count)
system.cpu0.dtb_walker_cache.blockedCauses::no_targets            0                       # number of times access was blocked (Count)
system.cpu0.dtb_walker_cache.avgBlocked::no_mshrs          nan                       # average number of cycles each access was blocked ((Cycle/Count))
system.cpu0.dtb_walker_cache.avgBlocked::no_targets          nan                       # average number of cycles each access was blocked ((Cycle/Count))
system.cpu0.dtb_walker_cache.replacements            0                       # number of replacements (Count)
system.cpu0.dtb_walker_cache.power_state.pwrStateResidencyTicks::UNDEFINED   2415004500                       # Cumulative time (in ticks) in various power states (Tick)
system.cpu0.dtb_walker_cache.tags.tagsInUse            0                       # Average ticks per tags in use ((Tick/Count))
system.cpu0.dtb_walker_cache.tags.totalRefs            0                       # Total number of references to valid blocks. (Count)
system.cpu0.dtb_walker_cache.tags.sampledRefs            0                       # Sample count of references to valid blocks. (Count)
system.cpu0.dtb_walker_cache.tags.avgRefs          nan                       # Average number of references to valid blocks. ((Count/Count))
system.cpu0.dtb_walker_cache.tags.warmupTick            0                       # The tick when the warmup percentage was hit. (Tick)
system.cpu0.dtb_walker_cache.tags.tagAccesses            0                       # Number of tag accesses (Count)
system.cpu0.dtb_walker_cache.tags.dataAccesses            0                       # Number of data accesses (Count)
system.cpu0.dtb_walker_cache.tags.power_state.pwrStateResidencyTicks::UNDEFINED   2415004500                       # Cumulative time (in ticks) in various power states (Tick)
system.cpu0.exec_context.thread_0.numMatAluAccesses            0                       # Number of matrix alu accesses (Count)
system.cpu0.exec_context.thread_0.numCallsReturns         5287                       # Number of times a function call or return occured (Count)
system.cpu0.exec_context.thread_0.numMatInsts            0                       # Number of matrix instructions (Count)
system.cpu0.exec_context.thread_0.numIdleCycles   117.999117                       # Number of idle cycles (Cycle)
system.cpu0.exec_context.thread_0.numBusyCycles 4829773.000883                       # Number of busy cycles (Cycle)
system.cpu0.exec_context.thread_0.notIdleFraction     0.999976                       # Percentage of non-idle cycles (Ratio)
system.cpu0.exec_context.thread_0.idleFraction     0.000024                       # Percentage of idle cycles (Ratio)
system.cpu0.executeStats0.numInsts                  0                       # Number of executed instructions (Count)
system.cpu0.executeStats0.numNop                    0                       # Number of nop insts executed (Count)
system.cpu0.executeStats0.numBranches               0                       # Number of branches executed (Count)
system.cpu0.executeStats0.numLoadInsts              0                       # Number of load instructions executed (Count)
system.cpu0.executeStats0.numStoreInsts        260259                       # Number of stores executed (Count)
system.cpu0.executeStats0.instRate                  0                       # Inst execution rate ((Count/Cycle))
system.cpu0.executeStats0.numFpAluAccesses         9669                       # Number of float alu accesses (Count)
system.cpu0.executeStats0.numFpRegReads         12592                       # Number of times the floating registers were read (Count)
system.cpu0.executeStats0.numFpRegWrites         6778                       # Number of times the floating registers were written (Count)
system.cpu0.executeStats0.numIntAluAccesses      2270684                       # Number of integer alu accesses (Count)
system.cpu0.executeStats0.numIntRegReads      3219836                       # Number of times the integer registers were read (Count)
system.cpu0.executeStats0.numIntRegWrites      1695454                       # Number of times the integer registers were written (Count)
system.cpu0.executeStats0.numMemRefs           260259                       # Number of memory refs (Count)
system.cpu0.executeStats0.numMiscRegReads       779529                       # Number of times the Misc registers were read (Count)
system.cpu0.executeStats0.numVecAluAccesses            0                       # Number of vector alu accesses (Count)
system.cpu0.executeStats0.numDiscardedOps            0                       # Number of ops (including micro ops) which were discarded before commit (Count)
system.cpu0.fetchStats0.numInsts              1250521                       # Number of instructions fetched (thread level) (Count)
system.cpu0.fetchStats0.numOps                2279066                       # Number of ops (including micro ops) fetched (thread level) (Count)
system.cpu0.fetchStats0.fetchRate            0.258913                       # Number of inst fetches per cycle ((Count/Cycle))
system.cpu0.fetchStats0.numBranches            259146                       # Number of branches fetched (Count)
system.cpu0.fetchStats0.branchRate           0.053655                       # Number of branch fetches per cycle (Ratio)
system.cpu0.fetchStats0.numFetchSuspends            0                       # Number of times Execute suspended instruction fetching (Count)
system.cpu0.icache.demandHits::cpu0.inst      1573654                       # number of demand (read+write) hits (Count)
system.cpu0.icache.demandHits::total          1573654                       # number of demand (read+write) hits (Count)
system.cpu0.icache.overallHits::cpu0.inst      1573654                       # number of overall hits (Count)
system.cpu0.icache.overallHits::total         1573654                       # number of overall hits (Count)
system.cpu0.icache.demandMisses::cpu0.inst         1322                       # number of demand (read+write) misses (Count)
system.cpu0.icache.demandMisses::total           1322                       # number of demand (read+write) misses (Count)
system.cpu0.icache.overallMisses::cpu0.inst         1322                       # number of overall misses (Count)
system.cpu0.icache.overallMisses::total          1322                       # number of overall misses (Count)
system.cpu0.icache.demandMissLatency::cpu0.inst    112828000                       # number of demand (read+write) miss ticks (Tick)
system.cpu0.icache.demandMissLatency::total    112828000                       # number of demand (read+write) miss ticks (Tick)
system.cpu0.icache.overallMissLatency::cpu0.inst    112828000                       # number of overall miss ticks (Tick)
system.cpu0.icache.overallMissLatency::total    112828000                       # number of overall miss ticks (Tick)
system.cpu0.icache.demandAccesses::cpu0.inst      1574976                       # number of demand (read+write) accesses (Count)
system.cpu0.icache.demandAccesses::total      1574976                       # number of demand (read+write) accesses (Count)
system.cpu0.icache.overallAccesses::cpu0.inst      1574976                       # number of overall (read+write) accesses (Count)
system.cpu0.icache.overallAccesses::total      1574976                       # number of overall (read+write) accesses (Count)
system.cpu0.icache.demandMissRate::cpu0.inst     0.000839                       # miss rate for demand accesses (Ratio)
system.cpu0.icache.demandMissRate::total     0.000839                       # miss rate for demand accesses (Ratio)
system.cpu0.icache.overallMissRate::cpu0.inst     0.000839                       # miss rate for overall accesses (Ratio)
system.cpu0.icache.overallMissRate::total     0.000839                       # miss rate for overall accesses (Ratio)
system.cpu0.icache.demandAvgMissLatency::cpu0.inst 85346.444781                       # average overall miss latency in ticks ((Tick/Count))
system.cpu0.icache.demandAvgMissLatency::total 85346.444781                       # average overall miss latency in ticks ((Tick/Count))
system.cpu0.icache.overallAvgMissLatency::cpu0.inst 85346.444781                       # average overall miss latency ((Tick/Count))
system.cpu0.icache.overallAvgMissLatency::total 85346.444781                       # average overall miss latency ((Tick/Count))
system.cpu0.icache.blockedCycles::no_mshrs            0                       # number of cycles access was blocked (Cycle)
system.cpu0.icache.blockedCycles::no_targets            0                       # number of cycles access was blocked (Cycle)
system.cpu0.icache.blockedCauses::no_mshrs            0                       # number of times access was blocked (Count)
system.cpu0.icache.blockedCauses::no_targets            0                       # number of times access was blocked (Count)
system.cpu0.icache.avgBlocked::no_mshrs           nan                       # average number of cycles each access was blocked ((Cycle/Count))
system.cpu0.icache.avgBlocked::no_targets          nan                       # average number of cycles each access was blocked ((Cycle/Count))
system.cpu0.icache.writebacks::writebacks          815                       # number of writebacks (Count)
system.cpu0.icache.writebacks::total              815                       # number of writebacks (Count)
system.cpu0.icache.demandMshrMisses::cpu0.inst         1322                       # number of demand (read+write) MSHR misses (Count)
system.cpu0.icache.demandMshrMisses::total         1322                       # number of demand (read+write) MSHR misses (Count)
system.cpu0.icache.overallMshrMisses::cpu0.inst         1322                       # number of overall MSHR misses (Count)
system.cpu0.icache.overallMshrMisses::total         1322                       # number of overall MSHR misses (Count)
system.cpu0.icache.demandMshrMissLatency::cpu0.inst    111506000                       # number of demand (read+write) MSHR miss ticks (Tick)
system.cpu0.icache.demandMshrMissLatency::total    111506000                       # number of demand (read+write) MSHR miss ticks (Tick)
system.cpu0.icache.overallMshrMissLatency::cpu0.inst    111506000                       # number of overall MSHR miss ticks (Tick)
system.cpu0.icache.overallMshrMissLatency::total    111506000                       # number of overall MSHR miss ticks (Tick)
system.cpu0.icache.demandMshrMissRate::cpu0.inst     0.000839                       # mshr miss ratio for demand accesses (Ratio)
system.cpu0.icache.demandMshrMissRate::total     0.000839                       # mshr miss ratio for demand accesses (Ratio)
system.cpu0.icache.overallMshrMissRate::cpu0.inst     0.000839                       # mshr miss ratio for overall accesses (Ratio)
system.cpu0.icache.overallMshrMissRate::total     0.000839                       # mshr miss ratio for overall accesses (Ratio)
system.cpu0.icache.demandAvgMshrMissLatency::cpu0.inst 84346.444781                       # average overall mshr miss latency ((Tick/Count))
system.cpu0.icache.demandAvgMshrMissLatency::total 84346.444781                       # average overall mshr miss latency ((Tick/Count))
system.cpu0.icache.overallAvgMshrMissLatency::cpu0.inst 84346.444781                       # average overall mshr miss latency ((Tick/Count))
system.cpu0.icache.overallAvgMshrMissLatency::total 84346.444781                       # average overall mshr miss latency ((Tick/Count))
system.cpu0.icache.replacements                   815                       # number of replacements (Count)
system.cpu0.icache.ReadReq.hits::cpu0.inst      1573654                       # number of ReadReq hits (Count)
system.cpu0.icache.ReadReq.hits::total        1573654                       # number of ReadReq hits (Count)
system.cpu0.icache.ReadReq.misses::cpu0.inst         1322                       # number of ReadReq misses (Count)
system.cpu0.icache.ReadReq.misses::total         1322                       # number of ReadReq misses (Count)
system.cpu0.icache.ReadReq.missLatency::cpu0.inst    112828000                       # number of ReadReq miss ticks (Tick)
system.cpu0.icache.ReadReq.missLatency::total    112828000                       # number of ReadReq miss ticks (Tick)
system.cpu0.icache.ReadReq.accesses::cpu0.inst      1574976                       # number of ReadReq accesses(hits+misses) (Count)
system.cpu0.icache.ReadReq.accesses::total      1574976                       # number of ReadReq accesses(hits+misses) (Count)
system.cpu0.icache.ReadReq.missRate::cpu0.inst     0.000839                       # miss rate for ReadReq accesses (Ratio)
system.cpu0.icache.ReadReq.missRate::total     0.000839                       # miss rate for ReadReq accesses (Ratio)
system.cpu0.icache.ReadReq.avgMissLatency::cpu0.inst 85346.444781                       # average ReadReq miss latency ((Tick/Count))
system.cpu0.icache.ReadReq.avgMissLatency::total 85346.444781                       # average ReadReq miss latency ((Tick/Count))
system.cpu0.icache.ReadReq.mshrMisses::cpu0.inst         1322                       # number of ReadReq MSHR misses (Count)
system.cpu0.icache.ReadReq.mshrMisses::total         1322                       # number of ReadReq MSHR misses (Count)
system.cpu0.icache.ReadReq.mshrMissLatency::cpu0.inst    111506000                       # number of ReadReq MSHR miss ticks (Tick)
system.cpu0.icache.ReadReq.mshrMissLatency::total    111506000                       # number of ReadReq MSHR miss ticks (Tick)
system.cpu0.icache.ReadReq.mshrMissRate::cpu0.inst     0.000839                       # mshr miss rate for ReadReq accesses (Ratio)
system.cpu0.icache.ReadReq.mshrMissRate::total     0.000839                       # mshr miss rate for ReadReq accesses (Ratio)
system.cpu0.icache.ReadReq.avgMshrMissLatency::cpu0.inst 84346.444781                       # average ReadReq mshr miss latency ((Tick/Count))
system.cpu0.icache.ReadReq.avgMshrMissLatency::total 84346.444781                       # average ReadReq mshr miss latency ((Tick/Count))
system.cpu0.icache.power_state.pwrStateResidencyTicks::UNDEFINED   2415004500                       # Cumulative time (in ticks) in various power states (Tick)
system.cpu0.icache.tags.tagsInUse          472.457158                       # Average ticks per tags in use ((Tick/Count))
system.cpu0.icache.tags.totalRefs             1574976                       # Total number of references to valid blocks. (Count)
system.cpu0.icache.tags.sampledRefs              1322                       # Sample count of references to valid blocks. (Count)
system.cpu0.icache.tags.avgRefs           1191.358548                       # Average number of references to valid blocks. ((Count/Count))
system.cpu0.icache.tags.warmupTick              87500                       # The tick when the warmup percentage was hit. (Tick)
system.cpu0.icache.tags.occupancies::cpu0.inst   472.457158                       # Average occupied blocks per tick, per requestor ((Count/Tick))
system.cpu0.icache.tags.avgOccs::cpu0.inst     0.922768                       # Average percentage of cache occupancy ((Ratio/Tick))
system.cpu0.icache.tags.avgOccs::total       0.922768                       # Average percentage of cache occupancy ((Ratio/Tick))
system.cpu0.icache.tags.occupanciesTaskId::1024          507                       # Occupied blocks per task id (Count)
system.cpu0.icache.tags.ageTaskId_1024::0           68                       # Occupied blocks per task id, per block age (Count)
system.cpu0.icache.tags.ageTaskId_1024::1           38                       # Occupied blocks per task id, per block age (Count)
system.cpu0.icache.tags.ageTaskId_1024::2          119                       # Occupied blocks per task id, per block age (Count)
system.cpu0.icache.tags.ageTaskId_1024::3          282                       # Occupied blocks per task id, per block age (Count)
system.cpu0.icache.tags.ratioOccsTaskId::1024     0.990234                       # Ratio of occupied blocks and all blocks, per task id (Ratio)
system.cpu0.icache.tags.tagAccesses           3151274                       # Number of tag accesses (Count)
system.cpu0.icache.tags.dataAccesses          3151274                       # Number of data accesses (Count)
system.cpu0.icache.tags.power_state.pwrStateResidencyTicks::UNDEFINED   2415004500                       # Cumulative time (in ticks) in various power states (Tick)
system.cpu0.interrupts.clk_domain.clock          8000                       # Clock period in ticks (Tick)
system.cpu0.itb_walker_cache.blockedCycles::no_mshrs            0                       # number of cycles access was blocked (Cycle)
system.cpu0.itb_walker_cache.blockedCycles::no_targets            0                       # number of cycles access was blocked (Cycle)
system.cpu0.itb_walker_cache.blockedCauses::no_mshrs            0                       # number of times access was blocked (Count)
system.cpu0.itb_walker_cache.blockedCauses::no_targets            0                       # number of times access was blocked (Count)
system.cpu0.itb_walker_cache.avgBlocked::no_mshrs          nan                       # average number of cycles each access was blocked ((Cycle/Count))
system.cpu0.itb_walker_cache.avgBlocked::no_targets          nan                       # average number of cycles each access was blocked ((Cycle/Count))
system.cpu0.itb_walker_cache.replacements            0                       # number of replacements (Count)
system.cpu0.itb_walker_cache.power_state.pwrStateResidencyTicks::UNDEFINED   2415004500                       # Cumulative time (in ticks) in various power states (Tick)
system.cpu0.itb_walker_cache.tags.tagsInUse            0                       # Average ticks per tags in use ((Tick/Count))
system.cpu0.itb_walker_cache.tags.totalRefs            0                       # Total number of references to valid blocks. (Count)
system.cpu0.itb_walker_cache.tags.sampledRefs            0                       # Sample count of references to valid blocks. (Count)
system.cpu0.itb_walker_cache.tags.avgRefs          nan                       # Average number of references to valid blocks. ((Count/Count))
system.cpu0.itb_walker_cache.tags.warmupTick            0                       # The tick when the warmup percentage was hit. (Tick)
system.cpu0.itb_walker_cache.tags.tagAccesses            0                       # Number of tag accesses (Count)
system.cpu0.itb_walker_cache.tags.dataAccesses            0                       # Number of data accesses (Count)
system.cpu0.itb_walker_cache.tags.power_state.pwrStateResidencyTicks::UNDEFINED   2415004500                       # Cumulative time (in ticks) in various power states (Tick)
system.cpu0.mmu.dtb.rdAccesses                 187125                       # TLB accesses on read requests (Count)
system.cpu0.mmu.dtb.wrAccesses                  73137                       # TLB accesses on write requests (Count)
system.cpu0.mmu.dtb.rdMisses                      160                       # TLB misses on read requests (Count)
system.cpu0.mmu.dtb.wrMisses                      114                       # TLB misses on write requests (Count)
system.cpu0.mmu.dtb.walker.power_state.pwrStateResidencyTicks::UNDEFINED   2415004500                       # Cumulative time (in ticks) in various power states (Tick)
system.cpu0.mmu.itb.rdAccesses                      0                       # TLB accesses on read requests (Count)
system.cpu0.mmu.itb.wrAccesses                1575027                       # TLB accesses on write requests (Count)
system.cpu0.mmu.itb.rdMisses                        0                       # TLB misses on read requests (Count)
system.cpu0.mmu.itb.wrMisses                      200                       # TLB misses on write requests (Count)
system.cpu0.mmu.itb.walker.power_state.pwrStateResidencyTicks::UNDEFINED   2415004500                       # Cumulative time (in ticks) in various power states (Tick)
system.cpu0.power_state.pwrStateResidencyTicks::ON   2415004500                       # Cumulative time (in ticks) in various power states (Tick)
system.cpu0.thread_0.numInsts                       0                       # Number of Instructions committed (Count)
system.cpu0.thread_0.numOps                         0                       # Number of Ops committed (Count)
system.cpu0.thread_0.numMemRefs                     0                       # Number of Memory References (Count)
system.cpu0.workload.numSyscalls                   35                       # Number of system calls (Count)
system.cpu1.numCycles                         4830009                       # Number of cpu cycles simulated (Cycle)
system.cpu1.cpi                              3.862397                       # CPI: cycles per instruction (core level) ((Cycle/Count))
system.cpu1.ipc                              0.258907                       # IPC: instructions per cycle (core level) ((Count/Cycle))
system.cpu1.numWorkItemsStarted                     0                       # Number of work items this cpu started (Count)
system.cpu1.numWorkItemsCompleted                   0                       # Number of work items this cpu completed (Count)
system.cpu1.commitStats0.numInsts             1250521                       # Number of instructions committed (thread level) (Count)
system.cpu1.commitStats0.numOps               2279066                       # Number of ops (including micro ops) committed (thread level) (Count)
system.cpu1.commitStats0.numInstsNotNOP             0                       # Number of instructions committed excluding NOPs or prefetches (Count)
system.cpu1.commitStats0.numOpsNotNOP               0                       # Number of Ops (including micro ops) Simulated (Count)
system.cpu1.commitStats0.cpi                 3.862397                       # CPI: cycles per instruction (thread level) ((Cycle/Count))
system.cpu1.commitStats0.ipc                 0.258907                       # IPC: instructions per cycle (thread level) ((Count/Cycle))
system.cpu1.commitStats0.numMemRefs                 0                       # Number of memory references committed (Count)
system.cpu1.commitStats0.numFpInsts              9669                       # Number of float instructions (Count)
system.cpu1.commitStats0.numIntInsts          2270684                       # Number of integer instructions (Count)
system.cpu1.commitStats0.numLoadInsts          187123                       # Number of load instructions (Count)
system.cpu1.commitStats0.numStoreInsts          73136                       # Number of store instructions (Count)
system.cpu1.commitStats0.numVecInsts                0                       # Number of vector instructions (Count)
system.cpu1.commitStats0.committedInstType::No_OpClass         2644      0.12%      0.12% # Class of committed instruction. (Count)
system.cpu1.commitStats0.committedInstType::IntAlu      1928871     84.63%     84.75% # Class of committed instruction. (Count)
system.cpu1.commitStats0.committedInstType::IntMult        80324      3.52%     88.27% # Class of committed instruction. (Count)
system.cpu1.commitStats0.committedInstType::IntDiv         1515      0.07%     88.34% # Class of committed instruction. (Count)
system.cpu1.commitStats0.committedInstType::FloatAdd          808      0.04%     88.38% # Class of committed instruction. (Count)
system.cpu1.commitStats0.committedInstType::FloatCmp            0      0.00%     88.38% # Class of committed instruction. (Count)
system.cpu1.commitStats0.committedInstType::FloatCvt            0      0.00%     88.38% # Class of committed instruction. (Count)
system.cpu1.commitStats0.committedInstType::FloatMult            0      0.00%     88.38% # Class of committed instruction. (Count)
system.cpu1.commitStats0.committedInstType::FloatMultAcc            0      0.00%     88.38% # Class of committed instruction. (Count)
system.cpu1.commitStats0.committedInstType::FloatDiv            0      0.00%     88.38% # Class of committed instruction. (Count)
system.cpu1.commitStats0.committedInstType::FloatMisc            0      0.00%     88.38% # Class of committed instruction. (Count)
system.cpu1.commitStats0.committedInstType::FloatSqrt            0      0.00%     88.38% # Class of committed instruction. (Count)
system.cpu1.commitStats0.committedInstType::SimdAdd          434      0.02%     88.40% # Class of committed instruction. (Count)
system.cpu1.commitStats0.committedInstType::SimdAddAcc            0      0.00%     88.40% # Class of committed instruction. (Count)
system.cpu1.commitStats0.committedInstType::SimdAlu         1339      0.06%     88.45% # Class of committed instruction. (Count)
system.cpu1.commitStats0.committedInstType::SimdCmp            2      0.00%     88.45% # Class of committed instruction. (Count)
system.cpu1.commitStats0.committedInstType::SimdCvt         1008      0.04%     88.50% # Class of committed instruction. (Count)
system.cpu1.commitStats0.committedInstType::SimdMisc         1631      0.07%     88.57% # Class of committed instruction. (Count)
system.cpu1.commitStats0.committedInstType::SimdMult            0      0.00%     88.57% # Class of committed instruction. (Count)
system.cpu1.commitStats0.committedInstType::SimdMultAcc            0      0.00%     88.57% # Class of committed instruction. (Count)
system.cpu1.commitStats0.committedInstType::SimdMatMultAcc            0      0.00%     88.57% # Class of committed instruction. (Count)
system.cpu1.commitStats0.committedInstType::SimdShift          231      0.01%     88.58% # Class of committed instruction. (Count)
system.cpu1.commitStats0.committedInstType::SimdShiftAcc            0      0.00%     88.58% # Class of committed instruction. (Count)
system.cpu1.commitStats0.committedInstType::SimdDiv            0      0.00%     88.58% # Class of committed instruction. (Count)
system.cpu1.commitStats0.committedInstType::SimdSqrt            0      0.00%     88.58% # Class of committed instruction. (Count)
system.cpu1.commitStats0.committedInstType::SimdFloatAdd            0      0.00%     88.58% # Class of committed instruction. (Count)
system.cpu1.commitStats0.committedInstType::SimdFloatAlu            0      0.00%     88.58% # Class of committed instruction. (Count)
system.cpu1.commitStats0.committedInstType::SimdFloatCmp            0      0.00%     88.58% # Class of committed instruction. (Count)
system.cpu1.commitStats0.committedInstType::SimdFloatCvt            0      0.00%     88.58% # Class of committed instruction. (Count)
system.cpu1.commitStats0.committedInstType::SimdFloatDiv            0      0.00%     88.58% # Class of committed instruction. (Count)
system.cpu1.commitStats0.committedInstType::SimdFloatMisc            0      0.00%     88.58% # Class of committed instruction. (Count)
system.cpu1.commitStats0.committedInstType::SimdFloatMult            0      0.00%     88.58% # Class of committed instruction. (Count)
system.cpu1.commitStats0.committedInstType::SimdFloatMultAcc            0      0.00%     88.58% # Class of committed instruction. (Count)
system.cpu1.commitStats0.committedInstType::SimdFloatMatMultAcc            0      0.00%     88.58% # Class of committed instruction. (Count)
system.cpu1.commitStats0.committedInstType::SimdFloatSqrt            0      0.00%     88.58% # Class of committed instruction. (Count)
system.cpu1.commitStats0.committedInstType::SimdReduceAdd            0      0.00%     88.58% # Class of committed instruction. (Count)
system.cpu1.commitStats0.committedInstType::SimdReduceAlu            0      0.00%     88.58% # Class of committed instruction. (Count)
system.cpu1.commitStats0.committedInstType::SimdReduceCmp            0      0.00%     88.58% # Class of committed instruction. (Count)
system.cpu1.commitStats0.committedInstType::SimdFloatReduceAdd            0      0.00%     88.58% # Class of committed instruction. (Count)
system.cpu1.commitStats0.committedInstType::SimdFloatReduceCmp            0      0.00%     88.58% # Class of committed instruction. (Count)
system.cpu1.commitStats0.committedInstType::SimdAes            0      0.00%     88.58% # Class of committed instruction. (Count)
system.cpu1.commitStats0.committedInstType::SimdAesMix            0      0.00%     88.58% # Class of committed instruction. (Count)
system.cpu1.commitStats0.committedInstType::SimdSha1Hash            0      0.00%     88.58% # Class of committed instruction. (Count)
system.cpu1.commitStats0.committedInstType::SimdSha1Hash2            0      0.00%     88.58% # Class of committed instruction. (Count)
system.cpu1.commitStats0.committedInstType::SimdSha256Hash            0      0.00%     88.58% # Class of committed instruction. (Count)
system.cpu1.commitStats0.committedInstType::SimdSha256Hash2            0      0.00%     88.58% # Class of committed instruction. (Count)
system.cpu1.commitStats0.committedInstType::SimdShaSigma2            0      0.00%     88.58% # Class of committed instruction. (Count)
system.cpu1.commitStats0.committedInstType::SimdShaSigma3            0      0.00%     88.58% # Class of committed instruction. (Count)
system.cpu1.commitStats0.committedInstType::SimdPredAlu            0      0.00%     88.58% # Class of committed instruction. (Count)
system.cpu1.commitStats0.committedInstType::Matrix            0      0.00%     88.58% # Class of committed instruction. (Count)
system.cpu1.commitStats0.committedInstType::MatrixMov            0      0.00%     88.58% # Class of committed instruction. (Count)
system.cpu1.commitStats0.committedInstType::MatrixOP            0      0.00%     88.58% # Class of committed instruction. (Count)
system.cpu1.commitStats0.committedInstType::MemRead       185637      8.15%     96.73% # Class of committed instruction. (Count)
system.cpu1.commitStats0.committedInstType::MemWrite        70977      3.11%     99.84% # Class of committed instruction. (Count)
system.cpu1.commitStats0.committedInstType::FloatMemRead         1486      0.07%     99.91% # Class of committed instruction. (Count)
system.cpu1.commitStats0.committedInstType::FloatMemWrite         2159      0.09%    100.00% # Class of committed instruction. (Count)
system.cpu1.commitStats0.committedInstType::IprAccess            0      0.00%    100.00% # Class of committed instruction. (Count)
system.cpu1.commitStats0.committedInstType::InstPrefetch            0      0.00%    100.00% # Class of committed instruction. (Count)
system.cpu1.commitStats0.committedInstType::VectorUnitStrideLoad            0      0.00%    100.00% # Class of committed instruction. (Count)
system.cpu1.commitStats0.committedInstType::VectorUnitStrideStore            0      0.00%    100.00% # Class of committed instruction. (Count)
system.cpu1.commitStats0.committedInstType::VectorUnitStrideMaskLoad            0      0.00%    100.00% # Class of committed instruction. (Count)
system.cpu1.commitStats0.committedInstType::VectorUnitStrideMaskStore            0      0.00%    100.00% # Class of committed instruction. (Count)
system.cpu1.commitStats0.committedInstType::VectorStridedLoad            0      0.00%    100.00% # Class of committed instruction. (Count)
system.cpu1.commitStats0.committedInstType::VectorStridedStore            0      0.00%    100.00% # Class of committed instruction. (Count)
system.cpu1.commitStats0.committedInstType::VectorIndexedLoad            0      0.00%    100.00% # Class of committed instruction. (Count)
system.cpu1.commitStats0.committedInstType::VectorIndexedStore            0      0.00%    100.00% # Class of committed instruction. (Count)
system.cpu1.commitStats0.committedInstType::VectorUnitStrideFaultOnlyFirstLoad            0      0.00%    100.00% # Class of committed instruction. (Count)
system.cpu1.commitStats0.committedInstType::VectorWholeRegisterLoad            0      0.00%    100.00% # Class of committed instruction. (Count)
system.cpu1.commitStats0.committedInstType::VectorWholeRegisterStore            0      0.00%    100.00% # Class of committed instruction. (Count)
system.cpu1.commitStats0.committedInstType::VectorIntegerArith            0      0.00%    100.00% # Class of committed instruction. (Count)
system.cpu1.commitStats0.committedInstType::VectorFloatArith            0      0.00%    100.00% # Class of committed instruction. (Count)
system.cpu1.commitStats0.committedInstType::VectorFloatConvert            0      0.00%    100.00% # Class of committed instruction. (Count)
system.cpu1.commitStats0.committedInstType::VectorIntegerReduce            0      0.00%    100.00% # Class of committed instruction. (Count)
system.cpu1.commitStats0.committedInstType::VectorFloatReduce            0      0.00%    100.00% # Class of committed instruction. (Count)
system.cpu1.commitStats0.committedInstType::VectorMisc            0      0.00%    100.00% # Class of committed instruction. (Count)
system.cpu1.commitStats0.committedInstType::VectorIntegerExtension            0      0.00%    100.00% # Class of committed instruction. (Count)
system.cpu1.commitStats0.committedInstType::VectorConfig            0      0.00%    100.00% # Class of committed instruction. (Count)
system.cpu1.commitStats0.committedInstType::total      2279066                       # Class of committed instruction. (Count)
system.cpu1.commitStats0.committedControl::IsControl       259146                       # Class of control type instructions committed (Count)
system.cpu1.commitStats0.committedControl::IsDirectControl       255690                       # Class of control type instructions committed (Count)
system.cpu1.commitStats0.committedControl::IsIndirectControl         3414                       # Class of control type instructions committed (Count)
system.cpu1.commitStats0.committedControl::IsCondControl       249236                       # Class of control type instructions committed (Count)
system.cpu1.commitStats0.committedControl::IsUncondControl         9868                       # Class of control type instructions committed (Count)
system.cpu1.commitStats0.committedControl::IsCall         2646                       # Class of control type instructions committed (Count)
system.cpu1.commitStats0.committedControl::IsReturn         2641                       # Class of control type instructions committed (Count)
system.cpu1.dcache.demandHits::cpu1.data       252609                       # number of demand (read+write) hits (Count)
system.cpu1.dcache.demandHits::total           252609                       # number of demand (read+write) hits (Count)
system.cpu1.dcache.overallHits::cpu1.data       252609                       # number of overall hits (Count)
system.cpu1.dcache.overallHits::total          252609                       # number of overall hits (Count)
system.cpu1.dcache.demandMisses::cpu1.data         7525                       # number of demand (read+write) misses (Count)
system.cpu1.dcache.demandMisses::total           7525                       # number of demand (read+write) misses (Count)
system.cpu1.dcache.overallMisses::cpu1.data         7525                       # number of overall misses (Count)
system.cpu1.dcache.overallMisses::total          7525                       # number of overall misses (Count)
system.cpu1.dcache.demandMissLatency::cpu1.data    475295500                       # number of demand (read+write) miss ticks (Tick)
system.cpu1.dcache.demandMissLatency::total    475295500                       # number of demand (read+write) miss ticks (Tick)
system.cpu1.dcache.overallMissLatency::cpu1.data    475295500                       # number of overall miss ticks (Tick)
system.cpu1.dcache.overallMissLatency::total    475295500                       # number of overall miss ticks (Tick)
system.cpu1.dcache.demandAccesses::cpu1.data       260134                       # number of demand (read+write) accesses (Count)
system.cpu1.dcache.demandAccesses::total       260134                       # number of demand (read+write) accesses (Count)
system.cpu1.dcache.overallAccesses::cpu1.data       260134                       # number of overall (read+write) accesses (Count)
system.cpu1.dcache.overallAccesses::total       260134                       # number of overall (read+write) accesses (Count)
system.cpu1.dcache.demandMissRate::cpu1.data     0.028927                       # miss rate for demand accesses (Ratio)
system.cpu1.dcache.demandMissRate::total     0.028927                       # miss rate for demand accesses (Ratio)
system.cpu1.dcache.overallMissRate::cpu1.data     0.028927                       # miss rate for overall accesses (Ratio)
system.cpu1.dcache.overallMissRate::total     0.028927                       # miss rate for overall accesses (Ratio)
system.cpu1.dcache.demandAvgMissLatency::cpu1.data 63162.192691                       # average overall miss latency in ticks ((Tick/Count))
system.cpu1.dcache.demandAvgMissLatency::total 63162.192691                       # average overall miss latency in ticks ((Tick/Count))
system.cpu1.dcache.overallAvgMissLatency::cpu1.data 63162.192691                       # average overall miss latency ((Tick/Count))
system.cpu1.dcache.overallAvgMissLatency::total 63162.192691                       # average overall miss latency ((Tick/Count))
system.cpu1.dcache.blockedCycles::no_mshrs            0                       # number of cycles access was blocked (Cycle)
system.cpu1.dcache.blockedCycles::no_targets            0                       # number of cycles access was blocked (Cycle)
system.cpu1.dcache.blockedCauses::no_mshrs            0                       # number of times access was blocked (Count)
system.cpu1.dcache.blockedCauses::no_targets            0                       # number of times access was blocked (Count)
system.cpu1.dcache.avgBlocked::no_mshrs           nan                       # average number of cycles each access was blocked ((Cycle/Count))
system.cpu1.dcache.avgBlocked::no_targets          nan                       # average number of cycles each access was blocked ((Cycle/Count))
system.cpu1.dcache.writebacks::writebacks         4818                       # number of writebacks (Count)
system.cpu1.dcache.writebacks::total             4818                       # number of writebacks (Count)
system.cpu1.dcache.demandMshrMisses::cpu1.data         7525                       # number of demand (read+write) MSHR misses (Count)
system.cpu1.dcache.demandMshrMisses::total         7525                       # number of demand (read+write) MSHR misses (Count)
system.cpu1.dcache.overallMshrMisses::cpu1.data         7525                       # number of overall MSHR misses (Count)
system.cpu1.dcache.overallMshrMisses::total         7525                       # number of overall MSHR misses (Count)
system.cpu1.dcache.demandMshrMissLatency::cpu1.data    467770500                       # number of demand (read+write) MSHR miss ticks (Tick)
system.cpu1.dcache.demandMshrMissLatency::total    467770500                       # number of demand (read+write) MSHR miss ticks (Tick)
system.cpu1.dcache.overallMshrMissLatency::cpu1.data    467770500                       # number of overall MSHR miss ticks (Tick)
system.cpu1.dcache.overallMshrMissLatency::total    467770500                       # number of overall MSHR miss ticks (Tick)
system.cpu1.dcache.demandMshrMissRate::cpu1.data     0.028927                       # mshr miss ratio for demand accesses (Ratio)
system.cpu1.dcache.demandMshrMissRate::total     0.028927                       # mshr miss ratio for demand accesses (Ratio)
system.cpu1.dcache.overallMshrMissRate::cpu1.data     0.028927                       # mshr miss ratio for overall accesses (Ratio)
system.cpu1.dcache.overallMshrMissRate::total     0.028927                       # mshr miss ratio for overall accesses (Ratio)
system.cpu1.dcache.demandAvgMshrMissLatency::cpu1.data 62162.192691                       # average overall mshr miss latency ((Tick/Count))
system.cpu1.dcache.demandAvgMshrMissLatency::total 62162.192691                       # average overall mshr miss latency ((Tick/Count))
system.cpu1.dcache.overallAvgMshrMissLatency::cpu1.data 62162.192691                       # average overall mshr miss latency ((Tick/Count))
system.cpu1.dcache.overallAvgMshrMissLatency::total 62162.192691                       # average overall mshr miss latency ((Tick/Count))
system.cpu1.dcache.replacements                  7043                       # number of replacements (Count)
system.cpu1.dcache.LockedRMWReadReq.hits::cpu1.data            9                       # number of LockedRMWReadReq hits (Count)
system.cpu1.dcache.LockedRMWReadReq.hits::total            9                       # number of LockedRMWReadReq hits (Count)
system.cpu1.dcache.LockedRMWReadReq.misses::cpu1.data            3                       # number of LockedRMWReadReq misses (Count)
system.cpu1.dcache.LockedRMWReadReq.misses::total            3                       # number of LockedRMWReadReq misses (Count)
system.cpu1.dcache.LockedRMWReadReq.missLatency::cpu1.data       236000                       # number of LockedRMWReadReq miss ticks (Tick)
system.cpu1.dcache.LockedRMWReadReq.missLatency::total       236000                       # number of LockedRMWReadReq miss ticks (Tick)
system.cpu1.dcache.LockedRMWReadReq.accesses::cpu1.data           12                       # number of LockedRMWReadReq accesses(hits+misses) (Count)
system.cpu1.dcache.LockedRMWReadReq.accesses::total           12                       # number of LockedRMWReadReq accesses(hits+misses) (Count)
system.cpu1.dcache.LockedRMWReadReq.missRate::cpu1.data     0.250000                       # miss rate for LockedRMWReadReq accesses (Ratio)
system.cpu1.dcache.LockedRMWReadReq.missRate::total     0.250000                       # miss rate for LockedRMWReadReq accesses (Ratio)
system.cpu1.dcache.LockedRMWReadReq.avgMissLatency::cpu1.data 78666.666667                       # average LockedRMWReadReq miss latency ((Tick/Count))
system.cpu1.dcache.LockedRMWReadReq.avgMissLatency::total 78666.666667                       # average LockedRMWReadReq miss latency ((Tick/Count))
system.cpu1.dcache.LockedRMWReadReq.mshrMisses::cpu1.data            3                       # number of LockedRMWReadReq MSHR misses (Count)
system.cpu1.dcache.LockedRMWReadReq.mshrMisses::total            3                       # number of LockedRMWReadReq MSHR misses (Count)
system.cpu1.dcache.LockedRMWReadReq.mshrMissLatency::cpu1.data       478000                       # number of LockedRMWReadReq MSHR miss ticks (Tick)
system.cpu1.dcache.LockedRMWReadReq.mshrMissLatency::total       478000                       # number of LockedRMWReadReq MSHR miss ticks (Tick)
system.cpu1.dcache.LockedRMWReadReq.mshrMissRate::cpu1.data     0.250000                       # mshr miss rate for LockedRMWReadReq accesses (Ratio)
system.cpu1.dcache.LockedRMWReadReq.mshrMissRate::total     0.250000                       # mshr miss rate for LockedRMWReadReq accesses (Ratio)
system.cpu1.dcache.LockedRMWReadReq.avgMshrMissLatency::cpu1.data 159333.333333                       # average LockedRMWReadReq mshr miss latency ((Tick/Count))
system.cpu1.dcache.LockedRMWReadReq.avgMshrMissLatency::total 159333.333333                       # average LockedRMWReadReq mshr miss latency ((Tick/Count))
system.cpu1.dcache.LockedRMWWriteReq.hits::cpu1.data           12                       # number of LockedRMWWriteReq hits (Count)
system.cpu1.dcache.LockedRMWWriteReq.hits::total           12                       # number of LockedRMWWriteReq hits (Count)
system.cpu1.dcache.LockedRMWWriteReq.accesses::cpu1.data           12                       # number of LockedRMWWriteReq accesses(hits+misses) (Count)
system.cpu1.dcache.LockedRMWWriteReq.accesses::total           12                       # number of LockedRMWWriteReq accesses(hits+misses) (Count)
system.cpu1.dcache.ReadReq.hits::cpu1.data       182544                       # number of ReadReq hits (Count)
system.cpu1.dcache.ReadReq.hits::total         182544                       # number of ReadReq hits (Count)
system.cpu1.dcache.ReadReq.misses::cpu1.data         4518                       # number of ReadReq misses (Count)
system.cpu1.dcache.ReadReq.misses::total         4518                       # number of ReadReq misses (Count)
system.cpu1.dcache.ReadReq.missLatency::cpu1.data    239025000                       # number of ReadReq miss ticks (Tick)
system.cpu1.dcache.ReadReq.missLatency::total    239025000                       # number of ReadReq miss ticks (Tick)
system.cpu1.dcache.ReadReq.accesses::cpu1.data       187062                       # number of ReadReq accesses(hits+misses) (Count)
system.cpu1.dcache.ReadReq.accesses::total       187062                       # number of ReadReq accesses(hits+misses) (Count)
system.cpu1.dcache.ReadReq.missRate::cpu1.data     0.024152                       # miss rate for ReadReq accesses (Ratio)
system.cpu1.dcache.ReadReq.missRate::total     0.024152                       # miss rate for ReadReq accesses (Ratio)
system.cpu1.dcache.ReadReq.avgMissLatency::cpu1.data 52905.046481                       # average ReadReq miss latency ((Tick/Count))
system.cpu1.dcache.ReadReq.avgMissLatency::total 52905.046481                       # average ReadReq miss latency ((Tick/Count))
system.cpu1.dcache.ReadReq.mshrMisses::cpu1.data         4518                       # number of ReadReq MSHR misses (Count)
system.cpu1.dcache.ReadReq.mshrMisses::total         4518                       # number of ReadReq MSHR misses (Count)
system.cpu1.dcache.ReadReq.mshrMissLatency::cpu1.data    234507000                       # number of ReadReq MSHR miss ticks (Tick)
system.cpu1.dcache.ReadReq.mshrMissLatency::total    234507000                       # number of ReadReq MSHR miss ticks (Tick)
system.cpu1.dcache.ReadReq.mshrMissRate::cpu1.data     0.024152                       # mshr miss rate for ReadReq accesses (Ratio)
system.cpu1.dcache.ReadReq.mshrMissRate::total     0.024152                       # mshr miss rate for ReadReq accesses (Ratio)
system.cpu1.dcache.ReadReq.avgMshrMissLatency::cpu1.data 51905.046481                       # average ReadReq mshr miss latency ((Tick/Count))
system.cpu1.dcache.ReadReq.avgMshrMissLatency::total 51905.046481                       # average ReadReq mshr miss latency ((Tick/Count))
system.cpu1.dcache.WriteReq.hits::cpu1.data        70065                       # number of WriteReq hits (Count)
system.cpu1.dcache.WriteReq.hits::total         70065                       # number of WriteReq hits (Count)
system.cpu1.dcache.WriteReq.misses::cpu1.data         3007                       # number of WriteReq misses (Count)
system.cpu1.dcache.WriteReq.misses::total         3007                       # number of WriteReq misses (Count)
system.cpu1.dcache.WriteReq.missLatency::cpu1.data    236270500                       # number of WriteReq miss ticks (Tick)
system.cpu1.dcache.WriteReq.missLatency::total    236270500                       # number of WriteReq miss ticks (Tick)
[...]
system.mem_ctrls.dram.writeRowHitRate           79.58                       # Row buffer hit rate for writes (Ratio)
system.mem_ctrls.dram.bytesPerActivate::samples         3920                       # Bytes accessed per row activation (Byte)
system.mem_ctrls.dram.bytesPerActivate::mean   309.910204                       # Bytes accessed per row activation (Byte)
system.mem_ctrls.dram.bytesPerActivate::gmean   191.063426                       # Bytes accessed per row activation (Byte)
system.mem_ctrls.dram.bytesPerActivate::stdev   317.032953                       # Bytes accessed per row activation (Byte)
system.mem_ctrls.dram.bytesPerActivate::0-127         1196     30.51%     30.51% # Bytes accessed per row activation (Byte)
system.mem_ctrls.dram.bytesPerActivate::128-255         1098     28.01%     58.52% # Bytes accessed per row activation (Byte)
system.mem_ctrls.dram.bytesPerActivate::256-383          454     11.58%     70.10% # Bytes accessed per row activation (Byte)
system.mem_ctrls.dram.bytesPerActivate::384-511          285      7.27%     77.37% # Bytes accessed per row activation (Byte)
system.mem_ctrls.dram.bytesPerActivate::512-639          179      4.57%     81.94% # Bytes accessed per row activation (Byte)
system.mem_ctrls.dram.bytesPerActivate::640-767          129      3.29%     85.23% # Bytes accessed per row activation (Byte)
system.mem_ctrls.dram.bytesPerActivate::768-895           81      2.07%     87.30% # Bytes accessed per row activation (Byte)
system.mem_ctrls.dram.bytesPerActivate::896-1023           73      1.86%     89.16% # Bytes accessed per row activation (Byte)
system.mem_ctrls.dram.bytesPerActivate::1024-1151          425     10.84%    100.00% # Bytes accessed per row activation (Byte)
system.mem_ctrls.dram.bytesPerActivate::total         3920                       # Bytes accessed per row activation (Byte)
system.mem_ctrls.dram.bytesRead                873024                       # Total bytes read (Byte)
system.mem_ctrls.dram.bytesWritten             342912                       # Total bytes written (Byte)
system.mem_ctrls.dram.avgRdBW              361.499948                       # Average DRAM read bandwidth in MiBytes/s ((Byte/Second))
system.mem_ctrls.dram.avgWrBW              141.992282                       # Average DRAM write bandwidth in MiBytes/s ((Byte/Second))
system.mem_ctrls.dram.peakBW                 12800.00                       # Theoretical peak bandwidth in MiByte/s ((Byte/Second))
system.mem_ctrls.dram.busUtil                    3.93                       # Data bus utilization in percentage (Ratio)
system.mem_ctrls.dram.busUtilRead                2.82                       # Data bus utilization in percentage for reads (Ratio)
system.mem_ctrls.dram.busUtilWrite               1.11                       # Data bus utilization in percentage for writes (Ratio)
system.mem_ctrls.dram.pageHitRate               79.35                       # Row buffer hit rate, read and write combined (Ratio)
system.mem_ctrls.dram.power_state.pwrStateResidencyTicks::UNDEFINED   2415004500                       # Cumulative time (in ticks) in various power states (Tick)
system.mem_ctrls.dram.rank0.actEnergy        13130460                       # Energy for activate commands per rank (pJ) (Joule)
system.mem_ctrls.dram.rank0.preEnergy         6971415                       # Energy for precharge commands per rank (pJ) (Joule)
system.mem_ctrls.dram.rank0.readEnergy       45346140                       # Energy for read commands per rank (pJ) (Joule)
system.mem_ctrls.dram.rank0.writeEnergy      13029120                       # Energy for write commands per rank (pJ) (Joule)
system.mem_ctrls.dram.rank0.refreshEnergy 190538400.000000                       # Energy for refresh commands per rank (pJ) (Joule)
system.mem_ctrls.dram.rank0.actBackEnergy    720347190                       # Energy for active background per rank (pJ) (Joule)
system.mem_ctrls.dram.rank0.preBackEnergy    320753760                       # Energy for precharge background per rank (pJ) (Joule)
system.mem_ctrls.dram.rank0.actPowerDownEnergy            0                       # Energy for active power-down per rank (pJ) (Joule)
system.mem_ctrls.dram.rank0.prePowerDownEnergy            0                       # Energy for precharge power-down per rank (pJ) (Joule)
system.mem_ctrls.dram.rank0.selfRefreshEnergy            0                       # Energy for self refresh per rank (pJ) (Joule)
system.mem_ctrls.dram.rank0.totalEnergy    1310116485                       # Total energy per rank (pJ) (Joule)
system.mem_ctrls.dram.rank0.averagePower   542.490287                       # Core power per rank (mW) (Watt)
system.mem_ctrls.dram.rank0.totalIdleTime            0                       # Total Idle time Per DRAM Rank (Tick)
system.mem_ctrls.dram.rank0.pwrStateTime::IDLE    825435250                       # Time in different power states (Tick)
system.mem_ctrls.dram.rank0.pwrStateTime::REF     80600000                       # Time in different power states (Tick)
system.mem_ctrls.dram.rank0.pwrStateTime::SREF            0                       # Time in different power states (Tick)
system.mem_ctrls.dram.rank0.pwrStateTime::PRE_PDN            0                       # Time in different power states (Tick)
system.mem_ctrls.dram.rank0.pwrStateTime::ACT   1508969250                       # Time in different power states (Tick)
system.mem_ctrls.dram.rank0.pwrStateTime::ACT_PDN            0                       # Time in different power states (Tick)
system.mem_ctrls.dram.rank1.actEnergy        14886900                       # Energy for activate commands per rank (pJ) (Joule)
system.mem_ctrls.dram.rank1.preEnergy         7904985                       # Energy for precharge commands per rank (pJ) (Joule)
system.mem_ctrls.dram.rank1.readEnergy       52050600                       # Energy for read commands per rank (pJ) (Joule)
system.mem_ctrls.dram.rank1.writeEnergy      14939640                       # Energy for write commands per rank (pJ) (Joule)
system.mem_ctrls.dram.rank1.refreshEnergy 190538400.000000                       # Energy for refresh commands per rank (pJ) (Joule)
system.mem_ctrls.dram.rank1.actBackEnergy    798113430                       # Energy for active background per rank (pJ) (Joule)
system.mem_ctrls.dram.rank1.preBackEnergy    255266400                       # Energy for precharge background per rank (pJ) (Joule)
system.mem_ctrls.dram.rank1.actPowerDownEnergy            0                       # Energy for active power-down per rank (pJ) (Joule)
system.mem_ctrls.dram.rank1.prePowerDownEnergy            0                       # Energy for precharge power-down per rank (pJ) (Joule)
system.mem_ctrls.dram.rank1.selfRefreshEnergy            0                       # Energy for self refresh per rank (pJ) (Joule)
system.mem_ctrls.dram.rank1.totalEnergy    1333700355                       # Total energy per rank (pJ) (Joule)
system.mem_ctrls.dram.rank1.averagePower   552.255847                       # Core power per rank (mW) (Watt)
system.mem_ctrls.dram.rank1.totalIdleTime            0                       # Total Idle time Per DRAM Rank (Tick)
system.mem_ctrls.dram.rank1.pwrStateTime::IDLE    654114500                       # Time in different power states (Tick)
system.mem_ctrls.dram.rank1.pwrStateTime::REF     80600000                       # Time in different power states (Tick)
system.mem_ctrls.dram.rank1.pwrStateTime::SREF            0                       # Time in different power states (Tick)
system.mem_ctrls.dram.rank1.pwrStateTime::PRE_PDN            0                       # Time in different power states (Tick)
system.mem_ctrls.dram.rank1.pwrStateTime::ACT   1680290000                       # Time in different power states (Tick)
system.mem_ctrls.dram.rank1.pwrStateTime::ACT_PDN            0                       # Time in different power states (Tick)
system.mem_ctrls.power_state.pwrStateResidencyTicks::UNDEFINED   2415004500                       # Cumulative time (in ticks) in various power states (Tick)
system.membus.transDist::ReadResp                7706                       # Transaction distribution (Count)
system.membus.transDist::WritebackDirty          5390                       # Transaction distribution (Count)
system.membus.transDist::CleanEvict              3170                       # Transaction distribution (Count)
system.membus.transDist::ReadExReq               5973                       # Transaction distribution (Count)
system.membus.transDist::ReadExResp              5973                       # Transaction distribution (Count)
system.membus.transDist::ReadSharedReq           7706                       # Transaction distribution (Count)
system.membus.pktCount_system.l2.mem_side_port::system.mem_ctrls.port        35918                       # Packet count per connected requestor and responder (Count)
system.membus.pktCount_system.l2.mem_side_port::total        35918                       # Packet count per connected requestor and responder (Count)
system.membus.pktCount::total                   35918                       # Packet count per connected requestor and responder (Count)
system.membus.pktSize_system.l2.mem_side_port::system.mem_ctrls.port      1220416                       # Cumulative packet size per connected requestor and responder (Byte)
system.membus.pktSize_system.l2.mem_side_port::total      1220416                       # Cumulative packet size per connected requestor and responder (Byte)
system.membus.pktSize::total                  1220416                       # Cumulative packet size per connected requestor and responder (Byte)
system.membus.snoops                                0                       # Total snoops (Count)
system.membus.snoopTraffic                          0                       # Total snoop traffic (Byte)
system.membus.snoopFanout::samples              13679                       # Request fanout histogram (Count)
system.membus.snoopFanout::mean                     0                       # Request fanout histogram (Count)
system.membus.snoopFanout::stdev                    0                       # Request fanout histogram (Count)
system.membus.snoopFanout::underflows               0      0.00%      0.00% # Request fanout histogram (Count)
system.membus.snoopFanout::0                    13679    100.00%    100.00% # Request fanout histogram (Count)
system.membus.snoopFanout::1                        0      0.00%    100.00% # Request fanout histogram (Count)
system.membus.snoopFanout::overflows                0      0.00%    100.00% # Request fanout histogram (Count)
system.membus.snoopFanout::min_value                0                       # Request fanout histogram (Count)
system.membus.snoopFanout::max_value                0                       # Request fanout histogram (Count)
system.membus.snoopFanout::total                13679                       # Request fanout histogram (Count)
system.membus.power_state.pwrStateResidencyTicks::UNDEFINED   2415004500                       # Cumulative time (in ticks) in various power states (Tick)
system.membus.reqLayer4.occupancy            43860500                       # Layer occupancy (ticks) (Tick)
system.membus.reqLayer4.utilization               0.0                       # Layer utilization (Ratio)
system.membus.respLayer1.occupancy           71617250                       # Layer occupancy (ticks) (Tick)
system.membus.respLayer1.utilization              0.0                       # Layer utilization (Ratio)
system.membus.snoop_filter.totRequests          22239                       # Total number of requests made to the snoop filter. (Count)
system.membus.snoop_filter.hitSingleRequests         8560                       # Number of requests hitting in the snoop filter with a single holder of the requested data. (Count)
system.membus.snoop_filter.hitMultiRequests            0                       # Number of requests hitting in the snoop filter with multiple (>1) holders of the requested data. (Count)
system.membus.snoop_filter.totSnoops                0                       # Total number of snoops made to the snoop filter. (Count)
system.membus.snoop_filter.hitSingleSnoops            0                       # Number of snoops hitting in the snoop filter with a single holder of the requested data. (Count)
system.membus.snoop_filter.hitMultiSnoops            0                       # Number of snoops hitting in the snoop filter with multiple (>1) holders of the requested data. (Count)
system.tol2bus.transDist::ReadResp              11686                       # Transaction distribution (Count)
system.tol2bus.transDist::WritebackDirty        15054                       # Transaction distribution (Count)
system.tol2bus.transDist::WritebackClean         1629                       # Transaction distribution (Count)
system.tol2bus.transDist::CleanEvict             9402                       # Transaction distribution (Count)
system.tol2bus.transDist::ReadExReq              6018                       # Transaction distribution (Count)
system.tol2bus.transDist::ReadExResp             6018                       # Transaction distribution (Count)
system.tol2bus.transDist::ReadCleanReq           2644                       # Transaction distribution (Count)
system.tol2bus.transDist::ReadSharedReq          9042                       # Transaction distribution (Count)
system.tol2bus.pktCount_system.cpu0.icache.mem_side_port::system.l2.cpu_side_port         3459                       # Packet count per connected requestor and responder (Count)
system.tol2bus.pktCount_system.cpu0.dcache.mem_side_port::system.l2.cpu_side_port        22125                       # Packet count per connected requestor and responder (Count)
system.tol2bus.pktCount_system.cpu1.icache.mem_side_port::system.l2.cpu_side_port         3458                       # Packet count per connected requestor and responder (Count)
system.tol2bus.pktCount_system.cpu1.dcache.mem_side_port::system.l2.cpu_side_port        22099                       # Packet count per connected requestor and responder (Count)
system.tol2bus.pktCount::total                  51141                       # Packet count per connected requestor and responder (Count)
system.tol2bus.pktSize_system.cpu0.icache.mem_side_port::system.l2.cpu_side_port       136768                       # Cumulative packet size per connected requestor and responder (Byte)
system.tol2bus.pktSize_system.cpu0.dcache.mem_side_port::system.l2.cpu_side_port       792192                       # Cumulative packet size per connected requestor and responder (Byte)
system.tol2bus.pktSize_system.cpu1.icache.mem_side_port::system.l2.cpu_side_port       136704                       # Cumulative packet size per connected requestor and responder (Byte)
system.tol2bus.pktSize_system.cpu1.dcache.mem_side_port::system.l2.cpu_side_port       790144                       # Cumulative packet size per connected requestor and responder (Byte)
system.tol2bus.pktSize::total                 1855808                       # Cumulative packet size per connected requestor and responder (Byte)
system.tol2bus.snoops                           10352                       # Total snoops (Count)
system.tol2bus.snoopTraffic                    344960                       # Total snoop traffic (Byte)
system.tol2bus.snoopFanout::samples             28056                       # Request fanout histogram (Count)
system.tol2bus.snoopFanout::mean             0.066403                       # Request fanout histogram (Count)
system.tol2bus.snoopFanout::stdev            0.248990                       # Request fanout histogram (Count)
system.tol2bus.snoopFanout::underflows              0      0.00%      0.00% # Request fanout histogram (Count)
system.tol2bus.snoopFanout::0                   26193     93.36%     93.36% # Request fanout histogram (Count)
system.tol2bus.snoopFanout::1                    1863      6.64%    100.00% # Request fanout histogram (Count)
system.tol2bus.snoopFanout::2                       0      0.00%    100.00% # Request fanout histogram (Count)
system.tol2bus.snoopFanout::3                       0      0.00%    100.00% # Request fanout histogram (Count)
system.tol2bus.snoopFanout::4                       0      0.00%    100.00% # Request fanout histogram (Count)
system.tol2bus.snoopFanout::5                       0      0.00%    100.00% # Request fanout histogram (Count)
system.tol2bus.snoopFanout::6                       0      0.00%    100.00% # Request fanout histogram (Count)
system.tol2bus.snoopFanout::7                       0      0.00%    100.00% # Request fanout histogram (Count)
system.tol2bus.snoopFanout::8                       0      0.00%    100.00% # Request fanout histogram (Count)
system.tol2bus.snoopFanout::overflows               0      0.00%    100.00% # Request fanout histogram (Count)
system.tol2bus.snoopFanout::min_value               0                       # Request fanout histogram (Count)
system.tol2bus.snoopFanout::max_value               1                       # Request fanout histogram (Count)
system.tol2bus.snoopFanout::total               28056                       # Request fanout histogram (Count)
system.tol2bus.power_state.pwrStateResidencyTicks::UNDEFINED   2415004500                       # Cumulative time (in ticks) in various power states (Tick)
system.tol2bus.reqLayer0.occupancy           28011500                       # Layer occupancy (ticks) (Tick)
system.tol2bus.reqLayer0.utilization              0.0                       # Layer utilization (Ratio)
system.tol2bus.respLayer0.occupancy           1983499                       # Layer occupancy (ticks) (Tick)
system.tol2bus.respLayer0.utilization             0.0                       # Layer utilization (Ratio)
system.tol2bus.respLayer1.occupancy          11298998                       # Layer occupancy (ticks) (Tick)
system.tol2bus.respLayer1.utilization             0.0                       # Layer utilization (Ratio)
system.tol2bus.respLayer4.occupancy           1983000                       # Layer occupancy (ticks) (Tick)
system.tol2bus.respLayer4.utilization             0.0                       # Layer utilization (Ratio)
system.tol2bus.respLayer5.occupancy          11292998                       # Layer occupancy (ticks) (Tick)
system.tol2bus.respLayer5.utilization             0.0                       # Layer utilization (Ratio)
system.tol2bus.snoop_filter.totRequests         33437                       # Total number of requests made to the snoop filter. (Count)
system.tol2bus.snoop_filter.hitSingleRequests        15733                       # Number of requests hitting in the snoop filter with a single holder of the requested data. (Count)
system.tol2bus.snoop_filter.hitMultiRequests            0                       # Number of requests hitting in the snoop filter with multiple (>1) holders of the requested data. (Count)
system.tol2bus.snoop_filter.totSnoops            1863                       # Total number of snoops made to the snoop filter. (Count)
system.tol2bus.snoop_filter.hitSingleSnoops         1863                       # Number of snoops hitting in the snoop filter with a single holder of the requested data. (Count)
system.tol2bus.snoop_filter.hitMultiSnoops            0                       # Number of snoops hitting in the snoop filter with multiple (>1) holders of the requested data. (Count)
system.voltage_domain.voltage                       1                       # Voltage in Volts (Volt)
system.workload.inst.arm                            0                       # number of arm instructions executed (Count)
system.workload.inst.quiesce                        0                       # number of quiesce instructions executed (Count)

---------- End Simulation Statistics   ----------
